# LPF package for  MODFLOW-2005, generated by Flopy.
        53    -1E+30         0  
         0
         0
   1.000000E+00
         0
         0
INTERNAL               1 (100E15.6) -1 #hk layer 1                    
   4.696126E+00   4.659476E+00   4.627855E+00   4.601762E+00   4.581426E+00   4.566885E+00   4.558033E+00   4.554655E+00   4.556442E+00   4.563025E+00   4.573979E+00   4.588852E+00   4.607172E+00   4.628465E+00   4.652265E+00   4.678131E+00   4.705651E+00   4.734456E+00   4.764221E+00   4.794675E+00   4.825597E+00   4.856817E+00   4.888216E+00   4.919717E+00   4.951283E+00   4.982904E+00   5.014596E+00   5.046383E+00   5.078300E+00   5.110376E+00   5.142634E+00   5.175082E+00   5.207712E+00   5.240497E+00   5.273391E+00   5.306334E+00   5.339249E+00   5.372051E+00   5.404652E+00   5.436964E+00   5.468906E+00   5.500413E+00   5.531434E+00   5.561944E+00   5.591941E+00   5.621451E+00   5.650527E+00   5.679243E+00   5.707699E+00   5.736011E+00   5.764306E+00   5.792717E+00   5.821374E+00   5.850401E+00   5.879906E+00   5.909975E+00   5.940667E+00   5.972015E+00   6.004014E+00   6.036631E+00   6.069794E+00   6.103404E+00   6.137333E+00   6.171431E+00   6.205532E+00   6.239460E+00   6.273036E+00   6.306088E+00   6.338454E+00   6.369993E+00   6.400586E+00   6.430142E+00   6.458601E+00   6.485932E+00   6.512135E+00   6.537232E+00   6.561272E+00   6.584312E+00   6.606423E+00   6.627672E+00   6.648118E+00   6.667803E+00   6.686749E+00   6.704945E+00   6.722347E+00   6.738874E+00   6.754407E+00   6.768791E+00   6.781837E+00   6.793331E+00   6.803039E+00   6.810717E+00   6.816126E+00   6.819043E+00   6.819271E+00   6.816659E+00   6.811116E+00   6.802625E+00   6.791263E+00   6.777231E+00
   4.687081E+00   4.648184E+00   4.614832E+00   4.587527E+00   4.566462E+00   4.551628E+00   4.542868E+00   4.539912E+00   4.542402E+00   4.549911E+00   4.561965E+00   4.578058E+00   4.597672E+00   4.620288E+00   4.645401E+00   4.672533E+00   4.701245E+00   4.731145E+00   4.761895E+00   4.793213E+00   4.824878E+00   4.856726E+00   4.888646E+00   4.920578E+00   4.952503E+00   4.984430E+00   5.016395E+00   5.048445E+00   5.080631E+00   5.113000E+00   5.145586E+00   5.178406E+00   5.211456E+00   5.244711E+00   5.278121E+00   5.311616E+00   5.345113E+00   5.378513E+00   5.411715E+00   5.444617E+00   5.477127E+00   5.509166E+00   5.540679E+00   5.571631E+00   5.602023E+00   5.631880E+00   5.661260E+00   5.690249E+00   5.718958E+00   5.747518E+00   5.776071E+00   5.804768E+00   5.833756E+00   5.863175E+00   5.893144E+00   5.923761E+00   5.955093E+00   5.987175E+00   6.020002E+00   6.053533E+00   6.087689E+00   6.122356E+00   6.157389E+00   6.192619E+00   6.227859E+00   6.262910E+00   6.297573E+00   6.331654E+00   6.364975E+00   6.397380E+00   6.428741E+00   6.458961E+00   6.487978E+00   6.515769E+00   6.542340E+00   6.567730E+00   6.592001E+00   6.615234E+00   6.637517E+00   6.658939E+00   6.679579E+00   6.699498E+00   6.718729E+00   6.737272E+00   6.755087E+00   6.772090E+00   6.788155E+00   6.803110E+00   6.816747E+00   6.828825E+00   6.839078E+00   6.847230E+00   6.853004E+00   6.856137E+00   6.856399E+00   6.853603E+00   6.847628E+00   6.838434E+00   6.826084E+00   6.810788E+00
   4.685432E+00   4.644919E+00   4.610292E+00   4.582097E+00   4.560517E+00   4.545515E+00   4.536894E+00   4.534339E+00   4.537446E+00   4.545741E+00   4.558705E+00   4.575789E+00   4.596433E+00   4.620080E+00   4.646190E+00   4.674259E+00   4.703825E+00   4.734479E+00   4.765872E+00   4.797721E+00   4.829805E+00   4.861969E+00   4.894116E+00   4.926201E+00   4.958223E+00   4.990213E+00   5.022227E+00   5.054332E+00   5.086595E+00   5.119079E+00   5.151828E+00   5.184866E+00   5.218195E+00   5.251786E+00   5.285586E+00   5.319519E+00   5.353488E+00   5.387386E+00   5.421095E+00   5.454504E+00   5.487506E+00   5.520015E+00   5.551965E+00   5.583319E+00   5.614073E+00   5.644257E+00   5.673933E+00   5.703196E+00   5.732168E+00   5.760993E+00   5.789830E+00   5.818841E+00   5.848191E+00   5.878031E+00   5.908493E+00   5.939682E+00   5.971671E+00   6.004495E+00   6.038147E+00   6.072580E+00   6.107703E+00   6.143389E+00   6.179475E+00   6.215774E+00   6.252076E+00   6.288163E+00   6.323815E+00   6.358819E+00   6.392982E+00   6.426134E+00   6.458137E+00   6.488892E+00   6.518339E+00   6.546457E+00   6.573265E+00   6.598814E+00   6.623187E+00   6.646480E+00   6.668806E+00   6.690272E+00   6.710979E+00   6.731005E+00   6.750396E+00   6.769163E+00   6.787268E+00   6.804627E+00   6.821107E+00   6.836523E+00   6.850646E+00   6.863212E+00   6.873927E+00   6.882479E+00   6.888558E+00   6.891868E+00   6.892141E+00   6.889161E+00   6.882781E+00   6.872941E+00   6.859704E+00   6.843298E+00
   4.691822E+00   4.650340E+00   4.614949E+00   4.586238E+00   4.564399E+00   4.549377E+00   4.540949E+00   4.538767E+00   4.542388E+00   4.551303E+00   4.564956E+00   4.582763E+00   4.604128E+00   4.628467E+00   4.655214E+00   4.683844E+00   4.713880E+00   4.744903E+00   4.776560E+00   4.808568E+00   4.840715E+00   4.872857E+00   4.904911E+00   4.936850E+00   4.968691E+00   5.000489E+00   5.032316E+00   5.064257E+00   5.096396E+00   5.128808E+00   5.161547E+00   5.194643E+00   5.228096E+00   5.261879E+00   5.295933E+00   5.330172E+00   5.364491E+00   5.398771E+00   5.432882E+00   5.466701E+00   5.500110E+00   5.533013E+00   5.565338E+00   5.597044E+00   5.628127E+00   5.658617E+00   5.688583E+00   5.718127E+00   5.747380E+00   5.776498E+00   5.805653E+00   5.835020E+00   5.864773E+00   5.895076E+00   5.926069E+00   5.957863E+00   5.990532E+00   6.024112E+00   6.058590E+00   6.093910E+00   6.129971E+00   6.166631E+00   6.203710E+00   6.241002E+00   6.278277E+00   6.315298E+00   6.351826E+00   6.387631E+00   6.422505E+00   6.456268E+00   6.488775E+00   6.519925E+00   6.549658E+00   6.577962E+00   6.604866E+00   6.630437E+00   6.654772E+00   6.677991E+00   6.700224E+00   6.721601E+00   6.742241E+00   6.762239E+00   6.781655E+00   6.800508E+00   6.818768E+00   6.836349E+00   6.853110E+00   6.868856E+00   6.883342E+00   6.896280E+00   6.907350E+00   6.916213E+00   6.922525E+00   6.925958E+00   6.926217E+00   6.923056E+00   6.916306E+00   6.905898E+00   6.891892E+00   6.874541E+00
   4.706615E+00   4.664793E+00   4.629156E+00   4.600324E+00   4.578498E+00   4.563619E+00   4.555446E+00   4.553607E+00   4.557636E+00   4.566995E+00   4.581099E+00   4.599338E+00   4.621096E+00   4.645763E+00   4.672762E+00   4.701552E+00   4.731650E+00   4.762634E+00   4.794153E+00   4.825933E+00   4.857772E+00   4.889539E+00   4.921170E+00   4.952657E+00   4.984036E+00   5.015380E+00   5.046781E+00   5.078338E+00   5.110150E+00   5.142302E+00   5.174853E+00   5.207838E+00   5.241258E+00   5.275080E+00   5.309241E+00   5.343647E+00   5.378183E+00   5.412718E+00   5.447113E+00   5.481231E+00   5.514949E+00   5.548162E+00   5.580792E+00   5.612796E+00   5.644168E+00   5.674941E+00   5.705189E+00   5.735020E+00   5.764576E+00   5.794020E+00   5.823534E+00   5.853303E+00   5.883512E+00   5.914329E+00   5.945899E+00   5.978338E+00   6.011718E+00   6.046070E+00   6.081377E+00   6.117572E+00   6.154541E+00   6.192127E+00   6.230135E+00   6.268338E+00   6.306491E+00   6.344337E+00   6.381619E+00   6.418094E+00   6.453542E+00   6.487772E+00   6.520638E+00   6.552034E+00   6.581908E+00   6.610254E+00   6.637111E+00   6.662563E+00   6.686723E+00   6.709731E+00   6.731737E+00   6.752890E+00   6.773327E+00   6.793160E+00   6.812462E+00   6.831262E+00   6.849534E+00   6.867193E+00   6.884093E+00   6.900030E+00   6.914742E+00   6.927925E+00   6.939235E+00   6.948307E+00   6.954771E+00   6.958272E+00   6.958486E+00   6.955148E+00   6.948071E+00   6.937175E+00   6.922524E+00   6.904387E+00
   4.729980E+00   4.688418E+00   4.653039E+00   4.624477E+00   4.602942E+00   4.588373E+00   4.580520E+00   4.579000E+00   4.583326E+00   4.592946E+00   4.607256E+00   4.625632E+00   4.647440E+00   4.672064E+00   4.698916E+00   4.727455E+00   4.757196E+00   4.787724E+00   4.818699E+00   4.849857E+00   4.881011E+00   4.912052E+00   4.942931E+00   4.973661E+00   5.004298E+00   5.034932E+00   5.065670E+00   5.096627E+00   5.127911E+00   5.159614E+00   5.191801E+00   5.224507E+00   5.257730E+00   5.291436E+00   5.325551E+00   5.359976E+00   5.394585E+00   5.429237E+00   5.463786E+00   5.498085E+00   5.532004E+00   5.565431E+00   5.598285E+00   5.630522E+00   5.662136E+00   5.693164E+00   5.723683E+00   5.753808E+00   5.783687E+00   5.813491E+00   5.843409E+00   5.873633E+00   5.904352E+00   5.935738E+00   5.967938E+00   6.001066E+00   6.035192E+00   6.070339E+00   6.106482E+00   6.143541E+00   6.181391E+00   6.219857E+00   6.258729E+00   6.297762E+00   6.336694E+00   6.375252E+00   6.413165E+00   6.450177E+00   6.486058E+00   6.520612E+00   6.553689E+00   6.585186E+00   6.615054E+00   6.643297E+00   6.669968E+00   6.695163E+00   6.719015E+00   6.741680E+00   6.763327E+00   6.784125E+00   6.804228E+00   6.823761E+00   6.842813E+00   6.861420E+00   6.879561E+00   6.897153E+00   6.914046E+00   6.930029E+00   6.944829E+00   6.958124E+00   6.969552E+00   6.978728E+00   6.985260E+00   6.988768E+00   6.988908E+00   6.985397E+00   6.978032E+00   6.966727E+00   6.951548E+00   6.932772E+00
   4.761926E+00   4.721192E+00   4.686551E+00   4.658638E+00   4.637664E+00   4.623570E+00   4.616105E+00   4.614876E+00   4.619391E+00   4.629089E+00   4.643360E+00   4.661571E+00   4.683087E+00   4.707291E+00   4.733597E+00   4.761471E+00   4.790439E+00   4.820098E+00   4.850124E+00   4.880271E+00   4.910375E+00   4.940342E+00   4.970150E+00   4.999828E+00   5.029453E+00   5.059129E+00   5.088978E+00   5.119126E+00   5.149687E+00   5.180758E+00   5.212407E+00   5.244666E+00   5.277530E+00   5.310957E+00   5.344869E+00   5.379158E+00   5.413688E+00   5.448312E+00   5.482874E+00   5.517222E+00   5.551221E+00   5.584755E+00   5.617743E+00   5.650139E+00   5.681941E+00   5.713188E+00   5.743961E+00   5.774382E+00   5.804602E+00   5.834799E+00   5.865165E+00   5.895896E+00   5.927182E+00   5.959196E+00   5.992083E+00   6.025949E+00   6.060859E+00   6.096828E+00   6.133817E+00   6.171735E+00   6.210440E+00   6.249743E+00   6.289416E+00   6.329200E+00   6.368815E+00   6.407975E+00   6.446397E+00   6.483814E+00   6.519990E+00   6.554726E+00   6.587871E+00   6.619325E+00   6.649047E+00   6.677050E+00   6.703400E+00   6.728209E+00   6.751625E+00   6.773823E+00   6.794989E+00   6.815309E+00   6.834952E+00   6.854060E+00   6.872731E+00   6.891010E+00   6.908882E+00   6.926265E+00   6.943008E+00   6.958894E+00   6.973641E+00   6.986915E+00   6.998340E+00   7.007514E+00   7.014026E+00   7.017479E+00   7.017514E+00   7.013829E+00   7.006212E+00   6.994571E+00   6.978968E+00   6.959688E+00
   4.802327E+00   4.762955E+00   4.729506E+00   4.702600E+00   4.682446E+00   4.668987E+00   4.661970E+00   4.661005E+00   4.665601E+00   4.675196E+00   4.689181E+00   4.706931E+00   4.727816E+00   4.751228E+00   4.776596E+00   4.803401E+00   4.831186E+00   4.859573E+00   4.888258E+00   4.917021E+00   4.945719E+00   4.974286E+00   5.002717E+00   5.031066E+00   5.059423E+00   5.087908E+00   5.116655E+00   5.145795E+00   5.175449E+00   5.205714E+00   5.236655E+00   5.268301E+00   5.300642E+00   5.333630E+00   5.367177E+00   5.401166E+00   5.435459E+00   5.469898E+00   5.504323E+00   5.538579E+00   5.572526E+00   5.606050E+00   5.639069E+00   5.671540E+00   5.703465E+00   5.734885E+00   5.765888E+00   5.796599E+00   5.827173E+00   5.857792E+00   5.888648E+00   5.919938E+00   5.951849E+00   5.984550E+00   6.018179E+00   6.052836E+00   6.088573E+00   6.125392E+00   6.163242E+00   6.202016E+00   6.241556E+00   6.281656E+00   6.322073E+00   6.362531E+00   6.402738E+00   6.442394E+00   6.481208E+00   6.518905E+00   6.555244E+00   6.590026E+00   6.623102E+00   6.654379E+00   6.683823E+00   6.711458E+00   6.737363E+00   6.761665E+00   6.784530E+00   6.806147E+00   6.826720E+00   6.846450E+00   6.865520E+00   6.884086E+00   6.902255E+00   6.920080E+00   6.937553E+00   6.954593E+00   6.971049E+00   6.986701E+00   7.001260E+00   7.014384E+00   7.025687E+00   7.034753E+00   7.041159E+00   7.044496E+00   7.044388E+00   7.040525E+00   7.032686E+00   7.020769E+00   7.004836E+00   6.985168E+00
   4.850938E+00   4.813428E+00   4.781594E+00   4.756032E+00   4.736941E+00   4.724264E+00   4.717753E+00   4.717022E+00   4.721589E+00   4.730900E+00   4.744361E+00   4.761358E+00   4.781281E+00   4.803541E+00   4.827590E+00   4.852934E+00   4.879148E+00   4.905877E+00   4.932849E+00   4.959874E+00   4.986837E+00   5.013696E+00   5.040470E+00   5.067231E+00   5.094086E+00   5.121167E+00   5.148614E+00   5.176564E+00   5.205138E+00   5.234429E+00   5.264500E+00   5.295373E+00   5.327030E+00   5.359413E+00   5.392430E+00   5.425955E+00   5.459843E+00   5.493933E+00   5.528061E+00   5.562071E+00   5.595824E+00   5.629208E+00   5.662144E+00   5.694595E+00   5.726566E+00   5.758106E+00   5.789305E+00   5.820293E+00   5.851228E+00   5.882290E+00   5.913673E+00   5.945570E+00   5.978160E+00   6.011606E+00   6.046035E+00   6.081533E+00   6.118141E+00   6.155843E+00   6.194571E+00   6.234202E+00   6.274560E+00   6.315423E+00   6.356530E+00   6.397593E+00   6.438306E+00   6.478361E+00   6.517456E+00   6.555315E+00   6.591695E+00   6.626398E+00   6.659278E+00   6.690253E+00   6.719297E+00   6.746447E+00   6.771796E+00   6.795486E+00   6.817696E+00   6.838633E+00   6.858514E+00   6.877556E+00   6.895954E+00   6.913874E+00   6.931433E+00   6.948692E+00   6.965648E+00   6.982222E+00   6.998265E+00   7.013554E+00   7.027798E+00   7.040650E+00   7.051716E+00   7.060574E+00   7.066791E+00   7.069948E+00   7.069662E+00   7.065611E+00   7.057569E+00   7.045427E+00   7.029242E+00   7.009287E+00
   4.907409E+00   4.872223E+00   4.842397E+00   4.818488E+00   4.800684E+00   4.788925E+00   4.782967E+00   4.782438E+00   4.786867E+00   4.795720E+00   4.808423E+00   4.824387E+00   4.843029E+00   4.863791E+00   4.886159E+00   4.909675E+00   4.933947E+00   4.958659E+00   4.983575E+00   5.008537E+00   5.033461E+00   5.058333E+00   5.083195E+00   5.108137E+00   5.133279E+00   5.158763E+00   5.184734E+00   5.211328E+00   5.238662E+00   5.266826E+00   5.295872E+00   5.325816E+00   5.356629E+00   5.388246E+00   5.420564E+00   5.453455E+00   5.486765E+00   5.520333E+00   5.553996E+00   5.587597E+00   5.621002E+00   5.654106E+00   5.686834E+00   5.719158E+00   5.751089E+00   5.782682E+00   5.814034E+00   5.845275E+00   5.876568E+00   5.908090E+00   5.940030E+00   5.972574E+00   6.005894E+00   6.040139E+00   6.075421E+00   6.111812E+00   6.149333E+00   6.187950E+00   6.227576E+00   6.268067E+00   6.309230E+00   6.350826E+00   6.392577E+00   6.434182E+00   6.475324E+00   6.515687E+00   6.554964E+00   6.592877E+00   6.629184E+00   6.663692E+00   6.696265E+00   6.726826E+00   6.755363E+00   6.781926E+00   6.806622E+00   6.829607E+00   6.851075E+00   6.871248E+00   6.890356E+00   6.908627E+00   6.926268E+00   6.943455E+00   6.960312E+00   6.976908E+00   6.993243E+00   7.009243E+00   7.024760E+00   7.039571E+00   7.053386E+00   7.065854E+00   7.076578E+00   7.085133E+00   7.091082E+00   7.093997E+00   7.093493E+00   7.089242E+00   7.081008E+00   7.068679E+00   7.052303E+00   7.032146E+00
   4.971290E+00   4.938852E+00   4.911391E+00   4.889420E+00   4.873106E+00   4.862383E+00   4.857019E+00   4.856653E+00   4.860837E+00   4.869061E+00   4.880783E+00   4.895446E+00   4.912507E+00   4.931448E+00   4.951798E+00   4.973143E+00   4.995135E+00   5.017503E+00   5.040050E+00   5.062656E+00   5.085273E+00   5.107911E+00   5.130638E+00   5.153558E+00   5.176806E+00   5.200526E+00   5.224864E+00   5.249953E+00   5.275905E+00   5.302798E+00   5.330675E+00   5.359540E+00   5.389354E+00   5.420042E+00   5.451494E+00   5.483575E+00   5.516130E+00   5.548998E+00   5.582017E+00   5.615038E+00   5.647933E+00   5.680605E+00   5.712991E+00   5.745070E+00   5.776863E+00   5.808434E+00   5.839882E+00   5.871345E+00   5.902982E+00   5.934968E+00   5.967486E+00   6.000712E+00   6.034804E+00   6.069896E+00   6.106081E+00   6.143412E+00   6.181886E+00   6.221450E+00   6.261993E+00   6.303351E+00   6.345310E+00   6.387613E+00   6.429967E+00   6.472058E+00   6.513559E+00   6.554149E+00   6.593517E+00   6.631388E+00   6.667523E+00   6.701735E+00   6.733899E+00   6.763949E+00   6.791887E+00   6.817776E+00   6.841738E+00   6.863943E+00   6.884599E+00   6.903940E+00   6.922209E+00   6.939645E+00   6.956464E+00   6.972848E+00   6.988930E+00   7.004783E+00   7.020412E+00   7.035747E+00   7.050642E+00   7.064876E+00   7.078160E+00   7.090146E+00   7.100435E+00   7.108603E+00   7.114208E+00   7.116827E+00   7.116065E+00   7.111594E+00   7.103173E+00   7.090684E+00   7.074165E+00   7.053869E+00
   5.042043E+00   5.012733E+00   4.987960E+00   4.968180E+00   4.953534E+00   4.943954E+00   4.939213E+00   4.938970E+00   4.942802E+00   4.950236E+00   4.960765E+00   4.973878E+00   4.989079E+00   5.005900E+00   5.023924E+00   5.042788E+00   5.062197E+00   5.081930E+00   5.101834E+00   5.121832E+00   5.141908E+00   5.162103E+00   5.182506E+00   5.203235E+00   5.224433E+00   5.246248E+00   5.268820E+00   5.292277E+00   5.316719E+00   5.342212E+00   5.368785E+00   5.396429E+00   5.425093E+00   5.454691E+00   5.485108E+00   5.516204E+00   5.547823E+00   5.579807E+00   5.612000E+00   5.644262E+00   5.676477E+00   5.708558E+00   5.740456E+00   5.772162E+00   5.803709E+00   5.835169E+00   5.866650E+00   5.898289E+00   5.930246E+00   5.962691E+00   5.995799E+00   6.029730E+00   6.064629E+00   6.100607E+00   6.137738E+00   6.176049E+00   6.215514E+00   6.256052E+00   6.297532E+00   6.339762E+00   6.382509E+00   6.425497E+00   6.468418E+00   6.510945E+00   6.552745E+00   6.593489E+00   6.632870E+00   6.670614E+00   6.706489E+00   6.740318E+00   6.771987E+00   6.801445E+00   6.828706E+00   6.853851E+00   6.877014E+00   6.898381E+00   6.918172E+00   6.936633E+00   6.954018E+00   6.970572E+00   6.986521E+00   7.002053E+00   7.017306E+00   7.032357E+00   7.047215E+00   7.061813E+00   7.076010E+00   7.089587E+00   7.102259E+00   7.113679E+00   7.123454E+00   7.131160E+00   7.136359E+00   7.138627E+00   7.137571E+00   7.132860E+00   7.124249E+00   7.111615E+00   7.094985E+00   7.074598E+00
   5.119045E+00   5.093198E+00   5.071396E+00   5.054029E+00   5.041208E+00   5.032856E+00   5.028758E+00   5.028594E+00   5.031975E+00   5.038464E+00   5.047606E+00   5.058940E+00   5.072028E+00   5.086463E+00   5.101887E+00   5.117999E+00   5.134562E+00   5.151410E+00   5.168440E+00   5.185616E+00   5.202961E+00   5.220543E+00   5.238469E+00   5.256873E+00   5.275898E+00   5.295693E+00   5.316392E+00   5.338109E+00   5.360930E+00   5.384906E+00   5.410051E+00   5.436339E+00   5.463707E+00   5.492060E+00   5.521274E+00   5.551208E+00   5.581708E+00   5.612621E+00   5.643802E+00   5.675121E+00   5.706478E+00   5.737801E+00   5.769058E+00   5.800256E+00   5.831440E+00   5.862693E+00   5.894129E+00   5.925889E+00   5.958131E+00   5.991019E+00   6.024714E+00   6.059364E+00   6.095092E+00   6.131987E+00   6.170097E+00   6.209421E+00   6.249907E+00   6.291445E+00   6.333874E+00   6.376982E+00   6.420510E+00   6.464163E+00   6.507619E+00   6.550539E+00   6.592582E+00   6.633419E+00   6.672744E+00   6.710287E+00   6.745827E+00   6.779200E+00   6.810303E+00   6.839101E+00   6.865627E+00   6.889973E+00   6.912292E+00   6.932780E+00   6.951672E+00   6.969223E+00   6.985695E+00   7.001342E+00   7.016396E+00   7.031046E+00   7.045437E+00   7.059649E+00   7.073692E+00   7.087505E+00   7.100949E+00   7.113810E+00   7.125806E+00   7.136598E+00   7.145796E+00   7.152980E+00   7.157721E+00   7.159593E+00   7.158208E+00   7.153235E+00   7.144427E+00   7.131653E+00   7.114932E+00   7.094485E+00
   5.201602E+00   5.179504E+00   5.160914E+00   5.146147E+00   5.135280E+00   5.128226E+00   5.124781E+00   5.124650E+00   5.127482E+00   5.132887E+00   5.140465E+00   5.149818E+00   5.160572E+00   5.172389E+00   5.184979E+00   5.198110E+00   5.211609E+00   5.225368E+00   5.239338E+00   5.253527E+00   5.267993E+00   5.282831E+00   5.298168E+00   5.314144E+00   5.330906E+00   5.348595E+00   5.367334E+00   5.387224E+00   5.408331E+00   5.430689E+00   5.454291E+00   5.479097E+00   5.505030E+00   5.531984E+00   5.559832E+00   5.588429E+00   5.617628E+00   5.647283E+00   5.677261E+00   5.707452E+00   5.737770E+00   5.768165E+00   5.798624E+00   5.829170E+00   5.859866E+00   5.890805E+00   5.922112E+00   5.953927E+00   5.986407E+00   6.019708E+00   6.053978E+00   6.089346E+00   6.125914E+00   6.163743E+00   6.202854E+00   6.243215E+00   6.284741E+00   6.327295E+00   6.370685E+00   6.414670E+00   6.458971E+00   6.503270E+00   6.547231E+00   6.590504E+00   6.632744E+00   6.673619E+00   6.712828E+00   6.750110E+00   6.785253E+00   6.818109E+00   6.848590E+00   6.876678E+00   6.902423E+00   6.925934E+00   6.947378E+00   6.966965E+00   6.984941E+00   7.001570E+00   7.017123E+00   7.031858E+00   7.046009E+00   7.059772E+00   7.073291E+00   7.086649E+00   7.099859E+00   7.112861E+00   7.125521E+00   7.137630E+00   7.148912E+00   7.159032E+00   7.167610E+00   7.174231E+00   7.178472E+00   7.179914E+00   7.178173E+00   7.172917E+00   7.163900E+00   7.150983E+00   7.134177E+00   7.113685E+00
   5.288953E+00   5.270838E+00   5.255657E+00   5.243640E+00   5.234828E+00   5.229124E+00   5.226331E+00   5.226187E+00   5.228381E+00   5.232578E+00   5.238439E+00   5.245636E+00   5.253869E+00   5.262876E+00   5.272443E+00   5.282412E+00   5.292676E+00   5.303192E+00   5.313964E+00   5.325046E+00   5.336530E+00   5.348538E+00   5.361209E+00   5.374691E+00   5.389129E+00   5.404653E+00   5.421371E+00   5.439366E+00   5.458683E+00   5.479333E+00   5.501292E+00   5.524499E+00   5.548864E+00   5.574273E+00   5.600593E+00   5.627683E+00   5.655400E+00   5.683612E+00   5.712201E+00   5.741076E+00   5.770175E+00   5.799470E+00   5.828969E+00   5.858717E+00   5.888794E+00   5.919308E+00   5.950389E+00   5.982183E+00   6.014843E+00   6.048516E+00   6.083334E+00   6.119407E+00   6.156811E+00   6.195579E+00   6.235699E+00   6.277108E+00   6.319685E+00   6.363261E+00   6.407613E+00   6.452471E+00   6.497531E+00   6.542456E+00   6.586893E+00   6.630484E+00   6.672877E+00   6.713744E+00   6.752787E+00   6.789755E+00   6.824452E+00   6.856743E+00   6.886559E+00   6.913903E+00   6.938838E+00   6.961492E+00   6.982048E+00   7.000728E+00   7.017790E+00   7.033505E+00   7.048150E+00   7.061987E+00   7.075252E+00   7.088142E+00   7.100803E+00   7.113316E+00   7.125698E+00   7.137890E+00   7.149762E+00   7.161109E+00   7.171661E+00   7.181092E+00   7.189026E+00   7.195061E+00   7.198778E+00   7.199767E+00   7.197649E+00   7.192093E+00   7.182853E+00   7.169786E+00   7.152891E+00   7.132353E+00
   5.380284E+00   5.366331E+00   5.354706E+00   5.345553E+00   5.338869E+00   5.334544E+00   5.332397E+00   5.332193E+00   5.333670E+00   5.336551E+00   5.340569E+00   5.345469E+00   5.351034E+00   5.357084E+00   5.363486E+00   5.370159E+00   5.377070E+00   5.384239E+00   5.391726E+00   5.399628E+00   5.408073E+00   5.417204E+00   5.427173E+00   5.438130E+00   5.450212E+00   5.463538E+00   5.478196E+00   5.494246E+00   5.511712E+00   5.530580E+00   5.550804E+00   5.572304E+00   5.594978E+00   5.618702E+00   5.643342E+00   5.668758E+00   5.694819E+00   5.721407E+00   5.748424E+00   5.775802E+00   5.803503E+00   5.831526E+00   5.859905E+00   5.888707E+00   5.918032E+00   5.948001E+00   5.978755E+00   6.010444E+00   6.043215E+00   6.077206E+00   6.112532E+00   6.149282E+00   6.187502E+00   6.227198E+00   6.268322E+00   6.310773E+00   6.354399E+00   6.398992E+00   6.444297E+00   6.490016E+00   6.535816E+00   6.581343E+00   6.626226E+00   6.670099E+00   6.712607E+00   6.753423E+00   6.792257E+00   6.828870E+00   6.863081E+00   6.894772E+00   6.923895E+00   6.950469E+00   6.974580E+00   6.996372E+00   7.016043E+00   7.033828E+00   7.049994E+00   7.064821E+00   7.078588E+00   7.091562E+00   7.103978E+00   7.116034E+00   7.127872E+00   7.139576E+00   7.151162E+00   7.162571E+00   7.173677E+00   7.184278E+00   7.194113E+00   7.202859E+00   7.210153E+00   7.215598E+00   7.218785E+00   7.219313E+00   7.216806E+00   7.210939E+00   7.201464E+00   7.188233E+00   7.171236E+00   7.150640E+00
   5.474736E+00   5.465067E+00   5.457098E+00   5.450881E+00   5.446368E+00   5.443436E+00   5.441916E+00   5.441609E+00   5.442301E+00   5.443783E+00   5.445858E+00   5.448359E+00   5.451151E+00   5.454143E+00   5.457287E+00   5.460583E+00   5.464075E+00   5.467845E+00   5.472009E+00   5.476708E+00   5.482100E+00   5.488349E+00   5.495615E+00   5.504046E+00   5.513771E+00   5.524889E+00   5.537468E+00   5.551544E+00   5.567112E+00   5.584135E+00   5.602544E+00   5.622241E+00   5.643108E+00   5.665017E+00   5.687830E+00   5.711416E+00   5.735654E+00   5.760446E+00   5.785715E+00   5.811419E+00   5.837550E+00   5.864136E+00   5.891236E+00   5.918946E+00   5.947384E+00   5.976688E+00   6.007010E+00   6.038500E+00   6.071303E+00   6.105546E+00   6.141327E+00   6.178709E+00   6.217712E+00   6.258307E+00   6.300411E+00   6.343886E+00   6.388541E+00   6.434132E+00   6.480370E+00   6.526926E+00   6.573441E+00   6.619538E+00   6.664835E+00   6.708955E+00   6.751541E+00   6.792267E+00   6.830855E+00   6.867079E+00   6.900773E+00   6.931839E+00   6.960250E+00   6.986046E+00   7.009332E+00   7.030271E+00   7.049073E+00   7.065990E+00   7.081296E+00   7.095277E+00   7.108217E+00   7.120381E+00   7.132007E+00   7.143288E+00   7.154365E+00   7.165320E+00   7.176167E+00   7.186849E+00   7.197238E+00   7.207140E+00   7.216296E+00   7.224392E+00   7.231071E+00   7.235947E+00   7.238618E+00   7.238691E+00   7.235797E+00   7.229614E+00   7.219893E+00   7.206482E+00   7.189363E+00   7.168686E+00
   5.571425E+00   5.566101E+00   5.561836E+00   5.558588E+00   5.556259E+00   5.554714E+00   5.553798E+00   5.553347E+00   5.553203E+00   5.553223E+00   5.553291E+00   5.553327E+00   5.553285E+00   5.553166E+00   5.553012E+00   5.552906E+00   5.552963E+00   5.553334E+00   5.554187E+00   5.555704E+00   5.558072E+00   5.561471E+00   5.566067E+00   5.572002E+00   5.579391E+00   5.588315E+00   5.598816E+00   5.610901E+00   5.624540E+00   5.639668E+00   5.656193E+00   5.673998E+00   5.692955E+00   5.712927E+00   5.733779E+00   5.755388E+00   5.777648E+00   5.800481E+00   5.823837E+00   5.847703E+00   5.872101E+00   5.897091E+00   5.922763E+00   5.949238E+00   5.976656E+00   6.005175E+00   6.034953E+00   6.066147E+00   6.098895E+00   6.133313E+00   6.169481E+00   6.207437E+00   6.247171E+00   6.288619E+00   6.331662E+00   6.376123E+00   6.421771E+00   6.468326E+00   6.515461E+00   6.562818E+00   6.610011E+00   6.656643E+00   6.702315E+00   6.746643E+00   6.789268E+00   6.829870E+00   6.868180E+00   6.903985E+00   6.937139E+00   6.967566E+00   6.995258E+00   7.020278E+00   7.042749E+00   7.062855E+00   7.080822E+00   7.096911E+00   7.111408E+00   7.124603E+00   7.136781E+00   7.148211E+00   7.159124E+00   7.169712E+00   7.180114E+00   7.190405E+00   7.200598E+00   7.210635E+00   7.220387E+00   7.229664E+00   7.238209E+00   7.245716E+00   7.251834E+00   7.256184E+00   7.258375E+00   7.258018E+00   7.254751E+00   7.248255E+00   7.238281E+00   7.224676E+00   7.207408E+00   7.186617E+00
   5.669450E+00   5.668474E+00   5.667911E+00   5.667623E+00   5.667462E+00   5.667281E+00   5.666939E+00   5.666310E+00   5.665292E+00   5.663815E+00   5.661845E+00   5.659390E+00   5.656501E+00   5.653271E+00   5.649830E+00   5.646344E+00   5.643006E+00   5.640027E+00   5.637627E+00   5.636027E+00   5.635438E+00   5.636055E+00   5.638043E+00   5.641539E+00   5.646637E+00   5.653399E+00   5.661837E+00   5.671931E+00   5.683620E+00   5.696814E+00   5.711397E+00   5.727235E+00   5.744187E+00   5.762113E+00   5.780881E+00   5.800379E+00   5.820519E+00   5.841245E+00   5.862536E+00   5.884412E+00   5.906928E+00   5.930175E+00   5.954278E+00   5.979382E+00   6.005655E+00   6.033267E+00   6.062392E+00   6.093186E+00   6.125784E+00   6.160290E+00   6.196764E+00   6.235220E+00   6.275616E+00   6.317854E+00   6.361776E+00   6.407166E+00   6.453753E+00   6.501217E+00   6.549200E+00   6.597308E+00   6.645131E+00   6.692249E+00   6.738251E+00   6.782744E+00   6.825369E+00   6.865812E+00   6.903813E+00   6.939177E+00   6.971776E+00   7.001555E+00   7.028530E+00   7.052784E+00   7.074465E+00   7.093771E+00   7.110946E+00   7.126263E+00   7.140015E+00   7.152499E+00   7.164001E+00   7.174786E+00   7.185085E+00   7.195086E+00   7.204919E+00   7.214658E+00   7.224308E+00   7.233810E+00   7.243034E+00   7.251789E+00   7.259821E+00   7.266828E+00   7.272464E+00   7.276359E+00   7.278125E+00   7.277382E+00   7.273771E+00   7.266977E+00   7.256751E+00   7.242934E+00   7.225490E+00   7.204545E+00