# Name file for MODFLOW-2005, generated by Flopy version 3.2.9.
#xul:0; yul:20; rotation:0; proj4_str:+init=EPSG:4326; units:meters; lenuni:2; length_multiplier:1.0 ;start_datetime:1-1-1970
LIST               2  mymodel.list
DIS               11  mymodel.dis 
LPF               15  mymodel.lpf 
