# WEL package for  MODFLOW-2005, generated by Flopy.
         1         0
         1         0 # stress period 1
         1        70        90   2.5000000E+01
