# WEL package for  MODFLOW-2005, generated by Flopy.
         1         0
         1         0 # stress period 1
         1        26         6   1.0000000E+03
