# Name file for MT3DMS, generated by Flopy version 3.2.9.
LIST              16  mf-mt.list
FTL               10  mt3d_link.ftl 
BTN               31  mf-mt.btn 
ADV               32  mf-mt.adv 
DSP               33  mf-mt.dsp 
SSM               34  mf-mt.ssm 
GCG               35  mf-mt.gcg 
