# LPF package for  MODFLOW-2005, generated by Flopy.
        53    -1E+30         0  
         0
         0
   1.000000E+00
         0
         0
INTERNAL               1 (100E15.6) -1 #hk layer 1                    
   3.417051E+00   3.367763E+00   3.325997E+00   3.292326E+00   3.266760E+00   3.248925E+00   3.238155E+00   3.233567E+00   3.234121E+00   3.238664E+00   3.245992E+00   3.254897E+00   3.264226E+00   3.272929E+00   3.280115E+00   3.285090E+00   3.287392E+00   3.286808E+00   3.283382E+00   3.277401E+00   3.269375E+00   3.259996E+00   3.250100E+00   3.240618E+00   3.232531E+00   3.226824E+00   3.224448E+00   3.226291E+00   3.233150E+00   3.245719E+00   3.264572E+00   3.290163E+00   3.322825E+00   3.362772E+00   3.410109E+00   3.464836E+00   3.526863E+00   3.596025E+00   3.672093E+00   3.754792E+00   3.843818E+00   3.938854E+00   4.039586E+00   4.145714E+00   4.256965E+00   4.373095E+00   4.493895E+00   4.619178E+00   4.748775E+00   4.882514E+00   5.020200E+00   5.161593E+00   5.306377E+00   5.454137E+00   5.604329E+00   5.756268E+00   5.909105E+00   6.061831E+00   6.213277E+00   6.362135E+00   6.506992E+00   6.646368E+00   6.778772E+00   6.902771E+00   7.017049E+00   7.120478E+00   7.212181E+00   7.291583E+00   7.358447E+00   7.412893E+00   7.455401E+00   7.486786E+00   7.508160E+00   7.520877E+00   7.526466E+00   7.526556E+00   7.522798E+00   7.516789E+00   7.510006E+00   7.503733E+00   7.499015E+00   7.496611E+00   7.496963E+00   7.500174E+00   7.505999E+00   7.513852E+00   7.522817E+00   7.531683E+00   7.538983E+00   7.543057E+00   7.542120E+00   7.534346E+00   7.517969E+00   7.491377E+00   7.453223E+00   7.402524E+00   7.338770E+00   7.262013E+00   7.172986E+00   7.073273E+00
   3.450860E+00   3.398996E+00   3.355670E+00   3.321442E+00   3.296225E+00   3.279522E+00   3.270538E+00   3.268249E+00   3.271461E+00   3.278871E+00   3.289110E+00   3.300815E+00   3.312676E+00   3.323505E+00   3.332290E+00   3.338242E+00   3.340836E+00   3.339831E+00   3.335277E+00   3.327498E+00   3.317072E+00   3.304780E+00   3.291561E+00   3.278459E+00   3.266566E+00   3.256975E+00   3.250734E+00   3.248815E+00   3.252085E+00   3.261292E+00   3.277052E+00   3.299847E+00   3.330025E+00   3.367808E+00   3.413299E+00   3.466492E+00   3.527288E+00   3.595511E+00   3.670919E+00   3.753228E+00   3.842128E+00   3.937299E+00   4.038429E+00   4.145227E+00   4.257435E+00   4.374827E+00   4.497217E+00   4.624443E+00   4.756361E+00   4.892823E+00   5.033648E+00   5.178605E+00   5.327369E+00   5.479503E+00   5.634423E+00   5.791378E+00   5.949436E+00   6.107477E+00   6.264205E+00   6.418165E+00   6.567784E+00   6.711418E+00   6.847418E+00   6.974201E+00   7.090327E+00   7.194573E+00   7.286010E+00   7.364051E+00   7.428497E+00   7.479554E+00   7.517829E+00   7.544303E+00   7.560281E+00   7.567330E+00   7.567199E+00   7.561736E+00   7.552801E+00   7.542179E+00   7.531511E+00   7.522216E+00   7.515441E+00   7.512014E+00   7.512406E+00   7.516716E+00   7.524660E+00   7.535571E+00   7.548420E+00   7.561847E+00   7.574204E+00   7.583621E+00   7.588077E+00   7.585496E+00   7.573851E+00   7.551273E+00   7.516170E+00   7.467339E+00   7.404081E+00   7.326313E+00   7.234694E+00   7.130882E+00
   3.500532E+00   3.447409E+00   3.403447E+00   3.369284E+00   3.344808E+00   3.329454E+00   3.322329E+00   3.322300E+00   3.328054E+00   3.338156E+00   3.351105E+00   3.365397E+00   3.379590E+00   3.392372E+00   3.402621E+00   3.409462E+00   3.412309E+00   3.410891E+00   3.405254E+00   3.395753E+00   3.383015E+00   3.367895E+00   3.351418E+00   3.334720E+00   3.318987E+00   3.305401E+00   3.295092E+00   3.289102E+00   3.288358E+00   3.293655E+00   3.305644E+00   3.324832E+00   3.351586E+00   3.386140E+00   3.428602E+00   3.478976E+00   3.537167E+00   3.603005E+00   3.676260E+00   3.756661E+00   3.843915E+00   3.937727E+00   4.037810E+00   4.143903E+00   4.255779E+00   4.373247E+00   4.496148E+00   4.624349E+00   4.757725E+00   4.896139E+00   5.039411E+00   5.187290E+00   5.339422E+00   5.495317E+00   5.654319E+00   5.815586E+00   5.978072E+00   6.140528E+00   6.301510E+00   6.459409E+00   6.612494E+00   6.758966E+00   6.897036E+00   7.025001E+00   7.141331E+00   7.244754E+00   7.334331E+00   7.409511E+00   7.470176E+00   7.516654E+00   7.549708E+00   7.570503E+00   7.580545E+00   7.581607E+00   7.575645E+00   7.564698E+00   7.550803E+00   7.535897E+00   7.521745E+00   7.509864E+00   7.501466E+00   7.497416E+00   7.498194E+00   7.503881E+00   7.514141E+00   7.528235E+00   7.545034E+00   7.563050E+00   7.580482E+00   7.595287E+00   7.605252E+00   7.608095E+00   7.601574E+00   7.583608E+00   7.552401E+00   7.506569E+00   7.445267E+00   7.368317E+00   7.276372E+00   7.171244E+00
   3.567581E+00   3.514577E+00   3.471020E+00   3.437645E+00   3.414364E+00   3.400589E+00   3.395376E+00   3.397521E+00   3.405628E+00   3.418165E+00   3.433528E+00   3.450107E+00   3.466352E+00   3.480850E+00   3.492387E+00   3.500014E+00   3.503088E+00   3.501303E+00   3.494696E+00   3.483632E+00   3.468771E+00   3.451015E+00   3.431449E+00   3.411276E+00   3.391751E+00   3.374122E+00   3.359583E+00   3.349230E+00   3.344037E+00   3.344839E+00   3.352318E+00   3.367007E+00   3.389297E+00   3.419440E+00   3.457567E+00   3.503700E+00   3.557773E+00   3.619645E+00   3.689122E+00   3.765975E+00   3.849959E+00   3.940827E+00   4.038347E+00   4.142311E+00   4.252542E+00   4.368894E+00   4.491247E+00   4.619493E+00   4.753520E+00   4.893185E+00   5.038284E+00   5.188525E+00   5.343488E+00   5.502596E+00   5.665087E+00   5.829988E+00   5.996113E+00   6.162054E+00   6.326204E+00   6.486793E+00   6.641932E+00   6.789683E+00   6.928144E+00   7.055530E+00   7.170270E+00   7.271095E+00   7.357111E+00   7.427859E+00   7.483353E+00   7.524084E+00   7.550999E+00   7.565464E+00   7.569185E+00   7.564131E+00   7.552436E+00   7.536298E+00   7.517884E+00   7.499238E+00   7.482197E+00   7.468330E+00   7.458872E+00   7.454689E+00   7.456241E+00   7.463571E+00   7.476290E+00   7.493587E+00   7.514248E+00   7.536682E+00   7.558977E+00   7.578959E+00   7.594277E+00   7.602502E+00   7.601238E+00   7.588253E+00   7.561605E+00   7.519786E+00   7.461849E+00   7.387562E+00   7.297594E+00   7.193851E+00
   3.653026E+00   3.601516E+00   3.559445E+00   3.527628E+00   3.506029E+00   3.494072E+00   3.490808E+00   3.495004E+00   3.505218E+00   3.519866E+00   3.537277E+00   3.555773E+00   3.573731E+00   3.589664E+00   3.602293E+00   3.610606E+00   3.613909E+00   3.611860E+00   3.604472E+00   3.592101E+00   3.575412E+00   3.555324E+00   3.532948E+00   3.509521E+00   3.486336E+00   3.464682E+00   3.445791E+00   3.430798E+00   3.420714E+00   3.416403E+00   3.418581E+00   3.427813E+00   3.444516E+00   3.468979E+00   3.501369E+00   3.541753E+00   3.590114E+00   3.646369E+00   3.710392E+00   3.782023E+00   3.861097E+00   3.947446E+00   4.040918E+00   4.141383E+00   4.248731E+00   4.362874E+00   4.483732E+00   4.611222E+00   4.745232E+00   4.885594E+00   5.032058E+00   5.184255E+00   5.341664E+00   5.503581E+00   5.669096E+00   5.837072E+00   6.006141E+00   6.174712E+00   6.340996E+00   6.503051E+00   6.658837E+00   6.806299E+00   6.943450E+00   7.068472E+00   7.179807E+00   7.276248E+00   7.357012E+00   7.421794E+00   7.470790E+00   7.504696E+00   7.524676E+00   7.532304E+00   7.529486E+00   7.518366E+00   7.501222E+00   7.480369E+00   7.458054E+00   7.436370E+00   7.417178E+00   7.402040E+00   7.392171E+00   7.388398E+00   7.391132E+00   7.400356E+00   7.415619E+00   7.436044E+00   7.460344E+00   7.486858E+00   7.513597E+00   7.538311E+00   7.558569E+00   7.571858E+00   7.575700E+00   7.567781E+00   7.546083E+00   7.509027E+00   7.455616E+00   7.385588E+00   7.299609E+00   7.199594E+00
   3.757523E+00   3.708879E+00   3.669384E+00   3.639911E+00   3.620485E+00   3.610580E+00   3.609274E+00   3.615349E+00   3.627365E+00   3.643728E+00   3.662751E+00   3.682729E+00   3.702006E+00   3.719061E+00   3.732572E+00   3.741484E+00   3.745063E+00   3.742923E+00   3.735037E+00   3.721728E+00   3.703631E+00   3.681644E+00   3.656863E+00   3.630519E+00   3.603905E+00   3.578318E+00   3.555005E+00   3.535119E+00   3.519695E+00   3.509628E+00   3.505667E+00   3.508414E+00   3.518336E+00   3.535772E+00   3.560951E+00   3.594013E+00   3.635020E+00   3.683980E+00   3.740865E+00   3.805624E+00   3.878197E+00   3.958529E+00   4.046572E+00   4.142293E+00   4.245667E+00   4.356672E+00   4.475270E+00   4.601394E+00   4.734918E+00   4.875631E+00   5.023204E+00   5.177158E+00   5.336831E+00   5.501351E+00   5.669616E+00   5.840281E+00   6.011761E+00   6.182251E+00   6.349760E+00   6.512165E+00   6.667285E+00   6.812967E+00   6.947181E+00   7.068123E+00   7.174309E+00   7.264661E+00   7.338577E+00   7.395965E+00   7.437260E+00   7.463405E+00   7.475804E+00   7.476250E+00   7.466838E+00   7.449862E+00   7.427709E+00   7.402761E+00   7.377291E+00   7.353387E+00   7.332872E+00   7.317254E+00   7.307675E+00   7.304883E+00   7.309208E+00   7.320556E+00   7.338400E+00   7.361798E+00   7.389408E+00   7.419523E+00   7.450117E+00   7.478912E+00   7.503456E+00   7.521224E+00   7.529727E+00   7.526640E+00   7.509938E+00   7.478033E+00   7.429917E+00   7.365314E+00   7.284865E+00   7.190409E+00
   3.881406E+00   3.837000E+00   3.801170E+00   3.774825E+00   3.758056E+00   3.750405E+00   3.751020E+00   3.758740E+00   3.772178E+00   3.789782E+00   3.809900E+00   3.830851E+00   3.851000E+00   3.868827E+00   3.883003E+00   3.892455E+00   3.896410E+00   3.894436E+00   3.886448E+00   3.872702E+00   3.853765E+00   3.830463E+00   3.803832E+00   3.775045E+00   3.745352E+00   3.716020E+00   3.688279E+00   3.663281E+00   3.642076E+00   3.625585E+00   3.614598E+00   3.609774E+00   3.611646E+00   3.620636E+00   3.637067E+00   3.661183E+00   3.693166E+00   3.733153E+00   3.781250E+00   3.837546E+00   3.902123E+00   3.975064E+00   4.056449E+00   4.146360E+00   4.244866E+00   4.352015E+00   4.467809E+00   4.592188E+00   4.724995E+00   4.865950E+00   5.014615E+00   5.170366E+00   5.332357E+00   5.499504E+00   5.670465E+00   5.843645E+00   6.017203E+00   6.189087E+00   6.357082E+00   6.518881E+00   6.672169E+00   6.814720E+00   6.944501E+00   7.059778E+00   7.159204E+00   7.241904E+00   7.307519E+00   7.356239E+00   7.388790E+00   7.406400E+00   7.410733E+00   7.403808E+00   7.387894E+00   7.365408E+00   7.338808E+00   7.310489E+00   7.282699E+00   7.257461E+00   7.236508E+00   7.221236E+00   7.212672E+00   7.211442E+00   7.217767E+00   7.231447E+00   7.251872E+00   7.278034E+00   7.308545E+00   7.341674E+00   7.375397E+00   7.407453E+00   7.435427E+00   7.456845E+00   7.469275E+00   7.470459E+00   7.458426E+00   7.431638E+00   7.389117E+00   7.330587E+00   7.256639E+00   7.168977E+00
   4.024694E+00   3.985896E+00   3.954815E+00   3.932365E+00   3.918702E+00   3.913461E+00   3.915892E+00   3.924942E+00   3.939329E+00   3.957601E+00   3.978204E+00   3.999544E+00   4.020055E+00   4.038272E+00   4.052897E+00   4.062857E+00   4.067356E+00   4.065905E+00   4.058338E+00   4.044810E+00   4.025767E+00   4.001914E+00   3.974161E+00   3.943570E+00   3.911293E+00   3.878520E+00   3.846430E+00   3.816153E+00   3.788739E+00   3.765141E+00   3.746202E+00   3.732659E+00   3.725146E+00   3.724202E+00   3.730287E+00   3.743797E+00   3.765075E+00   3.794430E+00   3.832141E+00   3.878477E+00   3.933689E+00   3.998023E+00   4.071707E+00   4.154948E+00   4.247917E+00   4.350729E+00   4.463421E+00   4.585925E+00   4.718035E+00   4.859376E+00   5.009370E+00   5.167206E+00   5.331815E+00   5.501852E+00   5.675691E+00   5.851439E+00   6.026957E+00   6.199914E+00   6.367851E+00   6.528270E+00   6.678731E+00   6.816965E+00   6.940980E+00   7.049168E+00   7.140389E+00   7.214037E+00   7.270071E+00   7.309020E+00   7.331954E+00   7.340418E+00   7.336357E+00   7.322013E+00   7.299814E+00   7.272271E+00   7.241867E+00   7.210968E+00   7.181741E+00   7.156090E+00   7.135605E+00   7.121522E+00   7.114703E+00   7.115619E+00   7.124343E+00   7.140553E+00   7.163538E+00   7.192221E+00   7.225175E+00   7.260665E+00   7.296695E+00   7.331066E+00   7.361449E+00   7.385479E+00   7.400852E+00   7.405432E+00   7.397375E+00   7.375243E+00   7.338126E+00   7.285767E+00   7.218698E+00   7.138446E+00
   4.187059E+00   4.155231E+00   4.129965E+00   4.112144E+00   4.101985E+00   4.099238E+00   4.103293E+00   4.113254E+00   4.128006E+00   4.146265E+00   4.166643E+00   4.187698E+00   4.208002E+00   4.226195E+00   4.241051E+00   4.251527E+00   4.256812E+00   4.256351E+00   4.249874E+00   4.237385E+00   4.219162E+00   4.195718E+00   4.167773E+00   4.136205E+00   4.102007E+00   4.066239E+00   4.029988E+00   3.994333E+00   3.960316E+00   3.928922E+00   3.901072E+00   3.877610E+00   3.859312E+00   3.846886E+00   3.840981E+00   3.842196E+00   3.851091E+00   3.868191E+00   3.893996E+00   3.928985E+00   3.973611E+00   4.028300E+00   4.093442E+00   4.169377E+00   4.256375E+00   4.354615E+00   4.464157E+00   4.584909E+00   4.716594E+00   4.858714E+00   5.010517E+00   5.170971E+00   5.338737E+00   5.512163E+00   5.689291E+00   5.867880E+00   6.045452E+00   6.219363E+00   6.386889E+00   6.545333E+00   6.692146E+00   6.825044E+00   6.942123E+00   7.041964E+00   7.123699E+00   7.187065E+00   7.232405E+00   7.260649E+00   7.273253E+00   7.272113E+00   7.259465E+00   7.237771E+00   7.209600E+00   7.177524E+00   7.144014E+00   7.111360E+00   7.081599E+00   7.056465E+00   7.037354E+00   7.025299E+00   7.020954E+00   7.024595E+00   7.036119E+00   7.055055E+00   7.080577E+00   7.111529E+00   7.146450E+00   7.183613E+00   7.221075E+00   7.256729E+00   7.288382E+00   7.313828E+00   7.330944E+00   7.337783E+00   7.332677E+00   7.314343E+00   7.281977E+00   7.235362E+00   7.174975E+00   7.102149E+00
   4.367792E+00   4.344267E+00   4.325843E+00   4.313331E+00   4.307004E+00   4.306744E+00   4.312119E+00   4.322452E+00   4.336859E+00   4.354302E+00   4.373636E+00   4.393647E+00   4.413111E+00   4.430837E+00   4.445714E+00   4.456760E+00   4.463153E+00   4.464270E+00   4.459698E+00   4.449253E+00   4.432974E+00   4.411115E+00   4.384124E+00   4.352618E+00   4.317356E+00   4.279205E+00   4.239110E+00   4.198069E+00   4.157103E+00   4.117240E+00   4.079500E+00   4.044880E+00   4.014349E+00   3.988844E+00   3.969268E+00   3.956489E+00   3.951340E+00   3.954620E+00   3.967092E+00   3.989478E+00   4.022457E+00   4.066653E+00   4.122623E+00   4.190839E+00   4.271667E+00   4.365339E+00   4.471922E+00   4.591281E+00   4.723047E+00   4.866570E+00   5.020894E+00   5.184722E+00   5.356404E+00   5.533935E+00   5.714971E+00   5.896875E+00   6.076787E+00   6.251713E+00   6.418642E+00   6.574677E+00   6.717171E+00   6.843860E+00   6.952979E+00   7.043357E+00   7.114474E+00   7.166478E+00   7.200163E+00   7.216915E+00   7.218617E+00   7.207541E+00   7.186223E+00   7.157337E+00   7.123573E+00   7.087535E+00   7.051644E+00   7.018069E+00   6.988672E+00   6.964976E+00   6.948137E+00   6.938939E+00   6.937791E+00   6.944739E+00   6.959471E+00   6.981342E+00   7.009393E+00   7.042377E+00   7.078797E+00   7.116943E+00   7.154941E+00   7.190807E+00   7.222517E+00   7.248070E+00   7.265573E+00   7.273319E+00   7.269870E+00   7.254138E+00   7.225468E+00   7.183708E+00   7.129295E+00   7.063368E+00
   4.565753E+00   4.551807E+00   4.541187E+00   4.534585E+00   4.532320E+00   4.534422E+00   4.540690E+00   4.550720E+00   4.563941E+00   4.579642E+00   4.597003E+00   4.615128E+00   4.633067E+00   4.649860E+00   4.664562E+00   4.676277E+00   4.684187E+00   4.687584E+00   4.685887E+00   4.678668E+00   4.665663E+00   4.646784E+00   4.622120E+00   4.591939E+00   4.556679E+00   4.516941E+00   4.473471E+00   4.427147E+00   4.378960E+00   4.329988E+00   4.281384E+00   4.234345E+00   4.190103E+00   4.149896E+00   4.114956E+00   4.086495E+00   4.065686E+00   4.053657E+00   4.051477E+00   4.060148E+00   4.080592E+00   4.113640E+00   4.160017E+00   4.220322E+00   4.295003E+00   4.384331E+00   4.488363E+00   4.606904E+00   4.739464E+00   4.885219E+00   5.042972E+00   5.211127E+00   5.387677E+00   5.570210E+00   5.755950E+00   5.941812E+00   6.124505E+00   6.300651E+00   6.466932E+00   6.620245E+00   6.757864E+00   6.877580E+00   6.977824E+00   7.057739E+00   7.117222E+00   7.156903E+00   7.178093E+00   7.182684E+00   7.173024E+00   7.151779E+00   7.121789E+00   7.085931E+00   7.046998E+00   7.007591E+00   6.970048E+00   6.936380E+00   6.908235E+00   6.886881E+00   6.873195E+00   6.867676E+00   6.870450E+00   6.881295E+00   6.899662E+00   6.924704E+00   6.955305E+00   6.990118E+00   7.027601E+00   7.066064E+00   7.103714E+00   7.138714E+00   7.169236E+00   7.193523E+00   7.209954E+00   7.217106E+00   7.213814E+00   7.199232E+00   7.172882E+00   7.134712E+00   7.085140E+00   7.025128E+00
   4.779331E+00   4.776144E+00   4.774187E+00   4.773984E+00   4.775887E+00   4.780097E+00   4.786689E+00   4.795603E+00   4.806663E+00   4.819577E+00   4.833946E+00   4.849268E+00   4.864956E+00   4.880340E+00   4.894689E+00   4.907223E+00   4.917139E+00   4.923630E+00   4.925916E+00   4.923273E+00   4.915062E+00   4.900768E+00   4.880026E+00   4.852655E+00   4.818678E+00   4.778343E+00   4.732134E+00   4.680766E+00   4.625178E+00   4.566517E+00   4.506103E+00   4.445398E+00   4.385969E+00   4.329441E+00   4.277465E+00   4.231677E+00   4.193663E+00   4.164939E+00   4.146926E+00   4.140929E+00   4.148130E+00   4.169570E+00   4.206135E+00   4.258539E+00   4.327298E+00   4.412704E+00   4.514785E+00   4.633262E+00   4.767506E+00   4.916488E+00   5.078741E+00   5.252331E+00   5.434849E+00   5.623429E+00   5.814804E+00   6.005390E+00   6.191417E+00   6.369087E+00   6.534752E+00   6.685106E+00   6.817361E+00   6.929410E+00   7.019930E+00   7.088454E+00   7.135365E+00   7.161850E+00   7.169795E+00   7.161644E+00   7.140243E+00   7.108669E+00   7.070064E+00   7.027497E+00   6.983838E+00   6.941663E+00   6.903193E+00   6.870245E+00   6.844220E+00   6.826094E+00   6.816433E+00   6.815411E+00   6.822836E+00   6.838188E+00   6.860646E+00   6.889132E+00   6.922353E+00   6.958840E+00   6.996999E+00   7.035157E+00   7.071615E+00   7.104693E+00   7.132788E+00   7.154418E+00   7.168268E+00   7.173238E+00   7.168476E+00   7.153409E+00   7.127777E+00   7.091655E+00   7.045471E+00   6.990038E+00
   5.006406E+00   5.015014E+00   5.022437E+00   5.028978E+00   5.035007E+00   5.040924E+00   5.047125E+00   5.053976E+00   5.061783E+00   5.070767E+00   5.081046E+00   5.092607E+00   5.105294E+00   5.118795E+00   5.132638E+00   5.146191E+00   5.158670E+00   5.169162E+00   5.176654E+00   5.180073E+00   5.178337E+00   5.170414E+00   5.155386E+00   5.132514E+00   5.101305E+00   5.061560E+00   5.013420E+00   4.957390E+00   4.894343E+00   4.825500E+00   4.752397E+00   4.676827E+00   4.600779E+00   4.526363E+00   4.455744E+00   4.391070E+00   4.334420E+00   4.287754E+00   4.252882E+00   4.231442E+00   4.224882E+00   4.234447E+00   4.261175E+00   4.305876E+00   4.369117E+00   4.451189E+00   4.552072E+00   4.671384E+00   4.808334E+00   4.961666E+00   5.129608E+00   5.309853E+00   5.499543E+00   5.695307E+00   5.893332E+00   6.089479E+00   6.279452E+00   6.458994E+00   6.624109E+00   6.771288E+00   6.897712E+00   7.001415E+00   7.081391E+00   7.137628E+00   7.171076E+00   7.183545E+00   7.177553E+00   7.156146E+00   7.122688E+00   7.080676E+00   7.033554E+00   6.984565E+00   6.936636E+00   6.892292E+00   6.853605E+00   6.822174E+00   6.799117E+00   6.785091E+00   6.780317E+00   6.784612E+00   6.797435E+00   6.817930E+00   6.844973E+00   6.877227E+00   6.913191E+00   6.951258E+00   6.989769E+00   7.027063E+00   7.061539E+00   7.091691E+00   7.116158E+00   7.133761E+00   7.143525E+00   7.144701E+00   7.136782E+00   7.119505E+00   7.092857E+00   7.057068E+00   7.012606E+00   6.960171E+00
   5.244339E+00   5.265578E+00   5.282910E+00   5.296362E+00   5.306311E+00   5.313375E+00   5.318336E+00   5.322059E+00   5.325426E+00   5.329273E+00   5.334326E+00   5.341147E+00   5.350089E+00   5.361256E+00   5.374476E+00   5.389288E+00   5.404939E+00   5.420398E+00   5.434391E+00   5.445450E+00   5.451977E+00   5.452341E+00   5.444966E+00   5.428450E+00   5.401666E+00   5.363869E+00   5.314776E+00   5.254624E+00   5.184195E+00   5.104798E+00   5.018232E+00   4.926695E+00   4.832696E+00   4.738933E+00   4.648186E+00   4.563211E+00   4.486652E+00   4.420973E+00   4.368412E+00   4.330953E+00   4.310311E+00   4.307929E+00   4.324977E+00   4.362343E+00   4.420620E+00   4.500081E+00   4.600636E+00   4.721786E+00   4.862556E+00   5.021434E+00   5.196322E+00   5.384498E+00   5.582612E+00   5.786733E+00   5.992447E+00   6.195004E+00   6.389532E+00   6.571279E+00   6.735885E+00   6.879645E+00   6.999738E+00   7.094395E+00   7.162991E+00   7.206049E+00   7.225162E+00   7.222829E+00   7.202258E+00   7.167126E+00   7.121344E+00   7.068829E+00   7.013318E+00   6.958213E+00   6.906476E+00   6.860553E+00   6.822347E+00   6.793208E+00   6.773950E+00   6.764883E+00   6.765851E+00   6.776290E+00   6.795274E+00   6.821579E+00   6.853745E+00   6.890142E+00   6.929037E+00   6.968659E+00   7.007270E+00   7.043220E+00   7.075000E+00   7.101295E+00   7.121006E+00   7.133276E+00   7.137496E+00   7.133301E+00   7.120555E+00   7.099333E+00   7.069894E+00   7.032652E+00   6.988145E+00   6.936998E+00
   5.489978E+00   5.524433E+00   5.551971E+00   5.572292E+00   5.585771E+00   5.593275E+00   5.596024E+00   5.595467E+00   5.593157E+00   5.590637E+00   5.589333E+00   5.590463E+00   5.594953E+00   5.603373E+00   5.615890E+00   5.632234E+00   5.651690E+00   5.673102E+00   5.694911E+00   5.715208E+00   5.731825E+00   5.742445E+00   5.744740E+00   5.736533E+00   5.715954E+00   5.681601E+00   5.632679E+00   5.569093E+00   5.491507E+00   5.401335E+00   5.300683E+00   5.192236E+00   5.079118E+00   4.964725E+00   4.852558E+00   4.746073E+00   4.648554E+00   4.563020E+00   4.492167E+00   4.438334E+00   4.403502E+00   4.389294E+00   4.396991E+00   4.427536E+00   4.481527E+00   4.559200E+00   4.660379E+00   4.784425E+00   4.930164E+00   5.095812E+00   5.278912E+00   5.476289E+00   5.684061E+00   5.897683E+00   6.112081E+00   6.321839E+00   6.521460E+00   6.705665E+00   6.869720E+00   7.009735E+00   7.122926E+00   7.207778E+00   7.264124E+00   7.293099E+00   7.297012E+00   7.279119E+00   7.243365E+00   7.194092E+00   7.135765E+00   7.072723E+00   7.008983E+00   6.948087E+00   6.893006E+00   6.846089E+00   6.809044E+00   6.782953E+00   6.768303E+00   6.765034E+00   6.772594E+00   6.790005E+00   6.815928E+00   6.848738E+00   6.886607E+00   6.927577E+00   6.969655E+00   7.010883E+00   7.049427E+00   7.083637E+00   7.112108E+00   7.133716E+00   7.147643E+00   7.153377E+00   7.150700E+00   7.139651E+00   7.120494E+00   7.093663E+00   7.059711E+00   7.019260E+00   6.972946E+00   6.921355E+00
   5.739700E+00   5.787649E+00   5.825419E+00   5.852339E+00   5.868774E+00   5.875871E+00   5.875350E+00   5.869322E+00   5.860097E+00   5.850015E+00   5.841283E+00   5.835842E+00   5.835243E+00   5.840566E+00   5.852339E+00   5.870504E+00   5.894387E+00   5.922703E+00   5.953590E+00   5.984669E+00   6.013145E+00   6.035949E+00   6.049914E+00   6.051981E+00   6.039427E+00   6.010089E+00   5.962564E+00   5.896366E+00   5.812008E+00   5.711017E+00   5.595854E+00   5.469770E+00   5.336604E+00   5.200554E+00   5.065947E+00   4.937026E+00   4.817781E+00   4.711833E+00   4.622354E+00   4.552045E+00   4.503137E+00   4.477417E+00   4.476254E+00   4.500620E+00   4.551101E+00   4.627871E+00   4.730656E+00   4.858666E+00   5.010511E+00   5.184114E+00   5.376633E+00   5.584411E+00   5.802982E+00   6.027141E+00   6.251096E+00   6.468713E+00   6.673824E+00   6.860599E+00   7.023921E+00   7.159741E+00   7.265354E+00   7.339567E+00   7.382745E+00   7.396719E+00   7.384583E+00   7.350412E+00   7.298929E+00   7.235160E+00   7.164130E+00   7.090592E+00   7.018823E+00   6.952481E+00   6.894530E+00   6.847194E+00   6.811970E+00   6.789654E+00   6.780390E+00   6.783732E+00   6.798711E+00   6.823911E+00   6.857553E+00   6.897581E+00   6.941762E+00   6.987784E+00   7.033359E+00   7.076322E+00   7.114722E+00   7.146906E+00   7.171567E+00   7.187788E+00   7.195045E+00   7.193192E+00   7.182417E+00   7.163193E+00   7.136198E+00   7.102243E+00   7.062196E+00   7.016904E+00   6.967127E+00   6.913446E+00
   5.989480E+00   6.050855E+00   6.098583E+00   6.131588E+00   6.150231E+00   6.155967E+00   6.151075E+00   6.138399E+00   6.121085E+00   6.102345E+00   6.085231E+00   6.072457E+00   6.066242E+00   6.068194E+00   6.079226E+00   6.099495E+00   6.128377E+00   6.164455E+00   6.205554E+00   6.248804E+00   6.290748E+00   6.327510E+00   6.355009E+00   6.369215E+00   6.366451E+00   6.343692E+00   6.298841E+00   6.230950E+00   6.140356E+00   6.028701E+00   5.898848E+00   5.754683E+00   5.600856E+00   5.442465E+00   5.284754E+00   5.132831E+00   4.991452E+00   4.864867E+00   4.756741E+00   4.670129E+00   4.607499E+00   4.570776E+00   4.561392E+00   4.580329E+00   4.628136E+00   4.704916E+00   4.810280E+00   4.943277E+00   5.102288E+00   5.284927E+00   5.487944E+00   5.707167E+00   5.937506E+00   6.173043E+00   6.407224E+00   6.633143E+00   6.843929E+00   7.033179E+00   7.195402E+00   7.326417E+00   7.423654E+00   7.486313E+00   7.515371E+00   7.513431E+00   7.484444E+00   7.433349E+00   7.365676E+00   7.287150E+00   7.203349E+00   7.119418E+00   7.039873E+00   6.968467E+00   6.908126E+00   6.860936E+00   6.828165E+00   6.810311E+00   6.807166E+00   6.817883E+00   6.841062E+00   6.874832E+00   6.916948E+00   6.964899E+00   7.016016E+00   7.067600E+00   7.117041E+00   7.161941E+00   7.200222E+00   7.230214E+00   7.250712E+00   7.261012E+00   7.260897E+00   7.250603E+00   7.230749E+00   7.202250E+00   7.166219E+00   7.123857E+00   7.076358E+00   7.024811E+00   6.970115E+00   6.912878E+00
   6.235003E+00   6.309355E+00   6.366449E+00   6.404791E+00   6.424738E+00   6.428091E+00   6.417737E+00   6.397316E+00   6.370872E+00   6.342543E+00   6.316271E+00   6.295573E+00   6.283351E+00   6.281755E+00   6.292082E+00   6.314713E+00   6.349071E+00   6.393612E+00   6.445847E+00   6.502405E+00   6.559152E+00   6.611369E+00   6.654003E+00   6.681988E+00   6.690608E+00   6.675888E+00   6.634956E+00   6.566348E+00   6.470189E+00   6.348241E+00   6.203803E+00   6.041462E+00   5.866754E+00   5.685762E+00   5.504725E+00   5.329677E+00   5.166176E+00   5.019125E+00   4.892682E+00   4.790243E+00   4.714492E+00   4.667467E+00   4.650641E+00   4.664982E+00   4.710987E+00   4.788672E+00   4.897531E+00   5.036437E+00   5.203536E+00   5.396118E+00   5.610503E+00   5.841975E+00   6.084785E+00   6.332263E+00   6.577042E+00   6.811412E+00   7.027773E+00   7.219143E+00   7.379675E+00   7.505099E+00   7.593041E+00   7.643171E+00   7.657156E+00   7.638442E+00   7.591892E+00   7.523349E+00   7.439164E+00   7.345756E+00   7.249235E+00   7.155117E+00   7.068125E+00   6.992076E+00   6.929839E+00   6.883341E+00   6.853613E+00   6.840848E+00   6.844477E+00   6.863252E+00   6.895330E+00   6.938376E+00   6.989663E+00   7.046197E+00   7.104854E+00   7.162518E+00   7.216233E+00   7.263348E+00   7.301639E+00   7.329412E+00   7.345567E+00   7.349615E+00   7.341660E+00   7.322332E+00   7.292695E+00   7.254118E+00   7.208158E+00   7.156415E+00   7.100415E+00   7.041496E+00   6.980711E+00   6.918722E+00
   6.471797E+00   6.558285E+00   6.623840E+00   6.666544E+00   6.686775E+00   6.686704E+00   6.669873E+00   6.640758E+00   6.604344E+00   6.565724E+00   6.529748E+00   6.500742E+00   6.482288E+00   6.477069E+00   6.486761E+00   6.511958E+00   6.552134E+00   6.605621E+00   6.669627E+00   6.740288E+00   6.812788E+00   6.881553E+00   6.940536E+00   6.983584E+00   7.004886E+00   6.999452E+00   6.963575E+00   6.895220E+00   6.794276E+00   6.662625E+00   6.504026E+00   6.323813E+00   6.128469E+00   5.925122E+00   5.721056E+00   5.523268E+00   5.338143E+00   5.171238E+00   5.027191E+00   4.909722E+00   4.821705E+00   4.765267E+00   4.741898E+00   4.752534E+00   4.797609E+00   4.877044E+00   4.990202E+00   5.135783E+00   5.311687E+00   5.514868E+00   5.741201E+00   5.985402E+00   6.241033E+00   6.500637E+00   6.756007E+00   6.998607E+00   7.220097E+00   7.412930E+00   7.570935E+00   7.689806E+00   7.767439E+00   7.804047E+00   7.802059E+00   7.765824E+00   7.701162E+00   7.614833E+00   7.514009E+00   7.405778E+00   7.296756E+00   7.192789E+00   7.098771E+00   7.018552E+00   6.954922E+00   6.909636E+00   6.883478E+00   6.876335E+00   6.887283E+00   6.914673E+00   6.956223E+00   7.009125E+00   7.070165E+00   7.135854E+00   7.202592E+00   7.266828E+00   7.325242E+00   7.374908E+00   7.413447E+00   7.439134E+00   7.450967E+00   7.448680E+00   7.432703E+00   7.404068E+00   7.364287E+00   7.315196E+00   7.258791E+00   7.197075E+00   7.131907E+00   7.064875E+00   6.997197E+00   6.929600E+00