# LPF package for  MODFLOW-2005, generated by Flopy.
        53    -1E+30         0  
         0
         0
   1.000000E+00
         0
         0
INTERNAL               1 (100E15.6) -1 #hk layer 1                    
   2.718637E+00   2.718647E+00   2.718657E+00   2.718665E+00   2.718671E+00   2.718675E+00   2.718678E+00   2.718678E+00   2.718677E+00   2.718673E+00   2.718667E+00   2.718659E+00   2.718650E+00   2.718638E+00   2.718624E+00   2.718609E+00   2.718592E+00   2.718573E+00   2.718553E+00   2.718532E+00   2.718509E+00   2.718485E+00   2.718460E+00   2.718435E+00   2.718408E+00   2.718382E+00   2.718354E+00   2.718327E+00   2.718300E+00   2.718272E+00   2.718245E+00   2.718218E+00   2.718192E+00   2.718167E+00   2.718142E+00   2.718118E+00   2.718095E+00   2.718073E+00   2.718053E+00   2.718034E+00   2.718016E+00   2.718000E+00   2.717985E+00   2.717972E+00   2.717961E+00   2.717952E+00   2.717944E+00   2.717938E+00   2.717935E+00   2.717933E+00   2.717933E+00   2.717935E+00   2.717938E+00   2.717944E+00   2.717952E+00   2.717961E+00   2.717972E+00   2.717985E+00   2.718000E+00   2.718016E+00   2.718034E+00   2.718053E+00   2.718073E+00   2.718095E+00   2.718118E+00   2.718142E+00   2.718167E+00   2.718192E+00   2.718218E+00   2.718245E+00   2.718272E+00   2.718300E+00   2.718327E+00   2.718354E+00   2.718382E+00   2.718408E+00   2.718435E+00   2.718460E+00   2.718485E+00   2.718509E+00   2.718532E+00   2.718553E+00   2.718573E+00   2.718592E+00   2.718609E+00   2.718624E+00   2.718638E+00   2.718650E+00   2.718659E+00   2.718667E+00   2.718673E+00   2.718677E+00   2.718678E+00   2.718678E+00   2.718675E+00   2.718671E+00   2.718665E+00   2.718657E+00   2.718647E+00   2.718637E+00
   2.718643E+00   2.718655E+00   2.718665E+00   2.718674E+00   2.718680E+00   2.718685E+00   2.718688E+00   2.718688E+00   2.718687E+00   2.718683E+00   2.718678E+00   2.718669E+00   2.718659E+00   2.718647E+00   2.718633E+00   2.718618E+00   2.718600E+00   2.718581E+00   2.718560E+00   2.718538E+00   2.718514E+00   2.718490E+00   2.718464E+00   2.718438E+00   2.718411E+00   2.718383E+00   2.718355E+00   2.718327E+00   2.718298E+00   2.718270E+00   2.718242E+00   2.718215E+00   2.718188E+00   2.718162E+00   2.718136E+00   2.718112E+00   2.718088E+00   2.718066E+00   2.718045E+00   2.718025E+00   2.718007E+00   2.717990E+00   2.717975E+00   2.717962E+00   2.717950E+00   2.717941E+00   2.717933E+00   2.717927E+00   2.717923E+00   2.717921E+00   2.717921E+00   2.717923E+00   2.717927E+00   2.717933E+00   2.717941E+00   2.717950E+00   2.717962E+00   2.717975E+00   2.717990E+00   2.718007E+00   2.718025E+00   2.718045E+00   2.718066E+00   2.718088E+00   2.718112E+00   2.718136E+00   2.718162E+00   2.718188E+00   2.718215E+00   2.718242E+00   2.718270E+00   2.718298E+00   2.718327E+00   2.718355E+00   2.718383E+00   2.718411E+00   2.718438E+00   2.718464E+00   2.718490E+00   2.718514E+00   2.718538E+00   2.718560E+00   2.718581E+00   2.718600E+00   2.718618E+00   2.718633E+00   2.718647E+00   2.718659E+00   2.718669E+00   2.718678E+00   2.718683E+00   2.718687E+00   2.718688E+00   2.718688E+00   2.718685E+00   2.718680E+00   2.718674E+00   2.718665E+00   2.718655E+00   2.718643E+00
   2.718647E+00   2.718660E+00   2.718671E+00   2.718680E+00   2.718687E+00   2.718693E+00   2.718695E+00   2.718696E+00   2.718695E+00   2.718691E+00   2.718685E+00   2.718677E+00   2.718667E+00   2.718655E+00   2.718640E+00   2.718624E+00   2.718606E+00   2.718586E+00   2.718565E+00   2.718542E+00   2.718518E+00   2.718493E+00   2.718467E+00   2.718440E+00   2.718412E+00   2.718384E+00   2.718355E+00   2.718326E+00   2.718297E+00   2.718268E+00   2.718240E+00   2.718212E+00   2.718184E+00   2.718157E+00   2.718131E+00   2.718106E+00   2.718082E+00   2.718059E+00   2.718038E+00   2.718018E+00   2.717999E+00   2.717982E+00   2.717967E+00   2.717954E+00   2.717942E+00   2.717932E+00   2.717924E+00   2.717918E+00   2.717914E+00   2.717912E+00   2.717912E+00   2.717914E+00   2.717918E+00   2.717924E+00   2.717932E+00   2.717942E+00   2.717954E+00   2.717967E+00   2.717982E+00   2.717999E+00   2.718018E+00   2.718038E+00   2.718059E+00   2.718082E+00   2.718106E+00   2.718131E+00   2.718157E+00   2.718184E+00   2.718212E+00   2.718240E+00   2.718268E+00   2.718297E+00   2.718326E+00   2.718355E+00   2.718384E+00   2.718412E+00   2.718440E+00   2.718467E+00   2.718493E+00   2.718518E+00   2.718542E+00   2.718565E+00   2.718586E+00   2.718606E+00   2.718624E+00   2.718640E+00   2.718655E+00   2.718667E+00   2.718677E+00   2.718685E+00   2.718691E+00   2.718695E+00   2.718696E+00   2.718695E+00   2.718693E+00   2.718687E+00   2.718680E+00   2.718671E+00   2.718660E+00   2.718647E+00
   2.718650E+00   2.718663E+00   2.718674E+00   2.718684E+00   2.718691E+00   2.718697E+00   2.718700E+00   2.718701E+00   2.718700E+00   2.718696E+00   2.718690E+00   2.718682E+00   2.718672E+00   2.718659E+00   2.718644E+00   2.718628E+00   2.718609E+00   2.718589E+00   2.718568E+00   2.718544E+00   2.718520E+00   2.718494E+00   2.718468E+00   2.718440E+00   2.718412E+00   2.718383E+00   2.718354E+00   2.718325E+00   2.718296E+00   2.718266E+00   2.718237E+00   2.718209E+00   2.718181E+00   2.718154E+00   2.718127E+00   2.718102E+00   2.718078E+00   2.718055E+00   2.718033E+00   2.718013E+00   2.717994E+00   2.717977E+00   2.717962E+00   2.717948E+00   2.717936E+00   2.717926E+00   2.717918E+00   2.717912E+00   2.717908E+00   2.717906E+00   2.717906E+00   2.717908E+00   2.717912E+00   2.717918E+00   2.717926E+00   2.717936E+00   2.717948E+00   2.717962E+00   2.717977E+00   2.717994E+00   2.718013E+00   2.718033E+00   2.718055E+00   2.718078E+00   2.718102E+00   2.718127E+00   2.718154E+00   2.718181E+00   2.718209E+00   2.718237E+00   2.718266E+00   2.718296E+00   2.718325E+00   2.718354E+00   2.718383E+00   2.718412E+00   2.718440E+00   2.718468E+00   2.718494E+00   2.718520E+00   2.718544E+00   2.718568E+00   2.718589E+00   2.718609E+00   2.718628E+00   2.718644E+00   2.718659E+00   2.718672E+00   2.718682E+00   2.718690E+00   2.718696E+00   2.718700E+00   2.718701E+00   2.718700E+00   2.718697E+00   2.718691E+00   2.718684E+00   2.718674E+00   2.718663E+00   2.718650E+00
   2.718650E+00   2.718663E+00   2.718675E+00   2.718685E+00   2.718693E+00   2.718698E+00   2.718702E+00   2.718703E+00   2.718701E+00   2.718698E+00   2.718692E+00   2.718683E+00   2.718673E+00   2.718660E+00   2.718646E+00   2.718629E+00   2.718610E+00   2.718590E+00   2.718568E+00   2.718544E+00   2.718520E+00   2.718494E+00   2.718467E+00   2.718439E+00   2.718411E+00   2.718382E+00   2.718353E+00   2.718323E+00   2.718294E+00   2.718264E+00   2.718235E+00   2.718207E+00   2.718179E+00   2.718151E+00   2.718125E+00   2.718100E+00   2.718075E+00   2.718052E+00   2.718030E+00   2.718010E+00   2.717991E+00   2.717974E+00   2.717959E+00   2.717945E+00   2.717933E+00   2.717924E+00   2.717916E+00   2.717910E+00   2.717906E+00   2.717904E+00   2.717904E+00   2.717906E+00   2.717910E+00   2.717916E+00   2.717924E+00   2.717933E+00   2.717945E+00   2.717959E+00   2.717974E+00   2.717991E+00   2.718010E+00   2.718030E+00   2.718052E+00   2.718075E+00   2.718100E+00   2.718125E+00   2.718151E+00   2.718179E+00   2.718207E+00   2.718235E+00   2.718264E+00   2.718294E+00   2.718323E+00   2.718353E+00   2.718382E+00   2.718411E+00   2.718439E+00   2.718467E+00   2.718494E+00   2.718520E+00   2.718544E+00   2.718568E+00   2.718590E+00   2.718610E+00   2.718629E+00   2.718646E+00   2.718660E+00   2.718673E+00   2.718683E+00   2.718692E+00   2.718698E+00   2.718701E+00   2.718703E+00   2.718702E+00   2.718698E+00   2.718693E+00   2.718685E+00   2.718675E+00   2.718663E+00   2.718650E+00
   2.718647E+00   2.718661E+00   2.718673E+00   2.718683E+00   2.718691E+00   2.718697E+00   2.718700E+00   2.718701E+00   2.718700E+00   2.718696E+00   2.718690E+00   2.718682E+00   2.718671E+00   2.718659E+00   2.718644E+00   2.718627E+00   2.718608E+00   2.718588E+00   2.718566E+00   2.718542E+00   2.718518E+00   2.718492E+00   2.718465E+00   2.718437E+00   2.718409E+00   2.718380E+00   2.718350E+00   2.718321E+00   2.718292E+00   2.718262E+00   2.718234E+00   2.718205E+00   2.718177E+00   2.718150E+00   2.718124E+00   2.718098E+00   2.718074E+00   2.718051E+00   2.718030E+00   2.718010E+00   2.717991E+00   2.717974E+00   2.717959E+00   2.717945E+00   2.717934E+00   2.717924E+00   2.717916E+00   2.717910E+00   2.717906E+00   2.717904E+00   2.717904E+00   2.717906E+00   2.717910E+00   2.717916E+00   2.717924E+00   2.717934E+00   2.717945E+00   2.717959E+00   2.717974E+00   2.717991E+00   2.718010E+00   2.718030E+00   2.718051E+00   2.718074E+00   2.718098E+00   2.718124E+00   2.718150E+00   2.718177E+00   2.718205E+00   2.718234E+00   2.718262E+00   2.718292E+00   2.718321E+00   2.718350E+00   2.718380E+00   2.718409E+00   2.718437E+00   2.718465E+00   2.718492E+00   2.718518E+00   2.718542E+00   2.718566E+00   2.718588E+00   2.718608E+00   2.718627E+00   2.718644E+00   2.718659E+00   2.718671E+00   2.718682E+00   2.718690E+00   2.718696E+00   2.718700E+00   2.718701E+00   2.718700E+00   2.718697E+00   2.718691E+00   2.718683E+00   2.718673E+00   2.718661E+00   2.718647E+00
   2.718642E+00   2.718656E+00   2.718668E+00   2.718678E+00   2.718686E+00   2.718692E+00   2.718695E+00   2.718696E+00   2.718695E+00   2.718691E+00   2.718685E+00   2.718677E+00   2.718666E+00   2.718654E+00   2.718639E+00   2.718622E+00   2.718603E+00   2.718583E+00   2.718561E+00   2.718538E+00   2.718513E+00   2.718488E+00   2.718461E+00   2.718433E+00   2.718405E+00   2.718376E+00   2.718348E+00   2.718318E+00   2.718289E+00   2.718261E+00   2.718232E+00   2.718204E+00   2.718176E+00   2.718150E+00   2.718124E+00   2.718099E+00   2.718075E+00   2.718053E+00   2.718031E+00   2.718012E+00   2.717993E+00   2.717977E+00   2.717962E+00   2.717949E+00   2.717937E+00   2.717928E+00   2.717920E+00   2.717914E+00   2.717910E+00   2.717908E+00   2.717908E+00   2.717910E+00   2.717914E+00   2.717920E+00   2.717928E+00   2.717937E+00   2.717949E+00   2.717962E+00   2.717977E+00   2.717993E+00   2.718012E+00   2.718031E+00   2.718053E+00   2.718075E+00   2.718099E+00   2.718124E+00   2.718150E+00   2.718176E+00   2.718204E+00   2.718232E+00   2.718261E+00   2.718289E+00   2.718318E+00   2.718348E+00   2.718376E+00   2.718405E+00   2.718433E+00   2.718461E+00   2.718488E+00   2.718513E+00   2.718538E+00   2.718561E+00   2.718583E+00   2.718603E+00   2.718622E+00   2.718639E+00   2.718654E+00   2.718666E+00   2.718677E+00   2.718685E+00   2.718691E+00   2.718695E+00   2.718696E+00   2.718695E+00   2.718692E+00   2.718686E+00   2.718678E+00   2.718668E+00   2.718656E+00   2.718642E+00
   2.718635E+00   2.718649E+00   2.718660E+00   2.718670E+00   2.718678E+00   2.718684E+00   2.718687E+00   2.718688E+00   2.718687E+00   2.718683E+00   2.718677E+00   2.718669E+00   2.718658E+00   2.718646E+00   2.718631E+00   2.718614E+00   2.718596E+00   2.718576E+00   2.718554E+00   2.718531E+00   2.718507E+00   2.718481E+00   2.718455E+00   2.718428E+00   2.718400E+00   2.718372E+00   2.718344E+00   2.718315E+00   2.718287E+00   2.718259E+00   2.718231E+00   2.718203E+00   2.718176E+00   2.718150E+00   2.718125E+00   2.718101E+00   2.718078E+00   2.718056E+00   2.718035E+00   2.718016E+00   2.717999E+00   2.717982E+00   2.717968E+00   2.717955E+00   2.717944E+00   2.717935E+00   2.717927E+00   2.717921E+00   2.717918E+00   2.717916E+00   2.717916E+00   2.717918E+00   2.717921E+00   2.717927E+00   2.717935E+00   2.717944E+00   2.717955E+00   2.717968E+00   2.717982E+00   2.717999E+00   2.718016E+00   2.718035E+00   2.718056E+00   2.718078E+00   2.718101E+00   2.718125E+00   2.718150E+00   2.718176E+00   2.718203E+00   2.718231E+00   2.718259E+00   2.718287E+00   2.718315E+00   2.718344E+00   2.718372E+00   2.718400E+00   2.718428E+00   2.718455E+00   2.718481E+00   2.718507E+00   2.718531E+00   2.718554E+00   2.718576E+00   2.718596E+00   2.718614E+00   2.718631E+00   2.718646E+00   2.718658E+00   2.718669E+00   2.718677E+00   2.718683E+00   2.718687E+00   2.718688E+00   2.718687E+00   2.718684E+00   2.718678E+00   2.718670E+00   2.718660E+00   2.718649E+00   2.718635E+00
   2.718625E+00   2.718638E+00   2.718650E+00   2.718660E+00   2.718667E+00   2.718673E+00   2.718676E+00   2.718677E+00   2.718675E+00   2.718672E+00   2.718665E+00   2.718657E+00   2.718647E+00   2.718634E+00   2.718620E+00   2.718603E+00   2.718585E+00   2.718565E+00   2.718544E+00   2.718522E+00   2.718498E+00   2.718473E+00   2.718447E+00   2.718421E+00   2.718394E+00   2.718367E+00   2.718339E+00   2.718312E+00   2.718284E+00   2.718257E+00   2.718230E+00   2.718203E+00   2.718177E+00   2.718152E+00   2.718128E+00   2.718105E+00   2.718082E+00   2.718061E+00   2.718041E+00   2.718023E+00   2.718006E+00   2.717991E+00   2.717977E+00   2.717964E+00   2.717954E+00   2.717945E+00   2.717938E+00   2.717932E+00   2.717929E+00   2.717927E+00   2.717927E+00   2.717929E+00   2.717932E+00   2.717938E+00   2.717945E+00   2.717954E+00   2.717964E+00   2.717977E+00   2.717991E+00   2.718006E+00   2.718023E+00   2.718041E+00   2.718061E+00   2.718082E+00   2.718105E+00   2.718128E+00   2.718152E+00   2.718177E+00   2.718203E+00   2.718230E+00   2.718257E+00   2.718284E+00   2.718312E+00   2.718339E+00   2.718367E+00   2.718394E+00   2.718421E+00   2.718447E+00   2.718473E+00   2.718498E+00   2.718522E+00   2.718544E+00   2.718565E+00   2.718585E+00   2.718603E+00   2.718620E+00   2.718634E+00   2.718647E+00   2.718657E+00   2.718665E+00   2.718672E+00   2.718675E+00   2.718677E+00   2.718676E+00   2.718673E+00   2.718667E+00   2.718660E+00   2.718650E+00   2.718638E+00   2.718625E+00
   2.718613E+00   2.718626E+00   2.718637E+00   2.718646E+00   2.718653E+00   2.718658E+00   2.718661E+00   2.718662E+00   2.718660E+00   2.718657E+00   2.718650E+00   2.718642E+00   2.718632E+00   2.718620E+00   2.718606E+00   2.718589E+00   2.718572E+00   2.718553E+00   2.718532E+00   2.718510E+00   2.718487E+00   2.718463E+00   2.718438E+00   2.718413E+00   2.718387E+00   2.718361E+00   2.718334E+00   2.718307E+00   2.718281E+00   2.718255E+00   2.718229E+00   2.718204E+00   2.718179E+00   2.718155E+00   2.718132E+00   2.718110E+00   2.718089E+00   2.718069E+00   2.718050E+00   2.718033E+00   2.718016E+00   2.718002E+00   2.717989E+00   2.717977E+00   2.717967E+00   2.717958E+00   2.717952E+00   2.717947E+00   2.717943E+00   2.717942E+00   2.717942E+00   2.717943E+00   2.717947E+00   2.717952E+00   2.717958E+00   2.717967E+00   2.717977E+00   2.717989E+00   2.718002E+00   2.718016E+00   2.718033E+00   2.718050E+00   2.718069E+00   2.718089E+00   2.718110E+00   2.718132E+00   2.718155E+00   2.718179E+00   2.718204E+00   2.718229E+00   2.718255E+00   2.718281E+00   2.718307E+00   2.718334E+00   2.718361E+00   2.718387E+00   2.718413E+00   2.718438E+00   2.718463E+00   2.718487E+00   2.718510E+00   2.718532E+00   2.718553E+00   2.718572E+00   2.718589E+00   2.718606E+00   2.718620E+00   2.718632E+00   2.718642E+00   2.718650E+00   2.718657E+00   2.718660E+00   2.718662E+00   2.718661E+00   2.718658E+00   2.718653E+00   2.718646E+00   2.718637E+00   2.718626E+00   2.718613E+00
   2.718599E+00   2.718611E+00   2.718621E+00   2.718630E+00   2.718636E+00   2.718641E+00   2.718644E+00   2.718644E+00   2.718642E+00   2.718638E+00   2.718632E+00   2.718624E+00   2.718614E+00   2.718602E+00   2.718588E+00   2.718573E+00   2.718556E+00   2.718537E+00   2.718517E+00   2.718496E+00   2.718474E+00   2.718451E+00   2.718427E+00   2.718403E+00   2.718378E+00   2.718354E+00   2.718328E+00   2.718303E+00   2.718278E+00   2.718253E+00   2.718229E+00   2.718205E+00   2.718182E+00   2.718159E+00   2.718138E+00   2.718117E+00   2.718097E+00   2.718078E+00   2.718060E+00   2.718044E+00   2.718029E+00   2.718016E+00   2.718004E+00   2.717993E+00   2.717983E+00   2.717975E+00   2.717969E+00   2.717964E+00   2.717961E+00   2.717960E+00   2.717960E+00   2.717961E+00   2.717964E+00   2.717969E+00   2.717975E+00   2.717983E+00   2.717993E+00   2.718004E+00   2.718016E+00   2.718029E+00   2.718044E+00   2.718060E+00   2.718078E+00   2.718097E+00   2.718117E+00   2.718138E+00   2.718159E+00   2.718182E+00   2.718205E+00   2.718229E+00   2.718253E+00   2.718278E+00   2.718303E+00   2.718328E+00   2.718354E+00   2.718378E+00   2.718403E+00   2.718427E+00   2.718451E+00   2.718474E+00   2.718496E+00   2.718517E+00   2.718537E+00   2.718556E+00   2.718573E+00   2.718588E+00   2.718602E+00   2.718614E+00   2.718624E+00   2.718632E+00   2.718638E+00   2.718642E+00   2.718644E+00   2.718644E+00   2.718641E+00   2.718636E+00   2.718630E+00   2.718621E+00   2.718611E+00   2.718599E+00
   2.718582E+00   2.718593E+00   2.718602E+00   2.718611E+00   2.718617E+00   2.718621E+00   2.718623E+00   2.718623E+00   2.718621E+00   2.718617E+00   2.718611E+00   2.718603E+00   2.718593E+00   2.718582E+00   2.718568E+00   2.718553E+00   2.718537E+00   2.718519E+00   2.718500E+00   2.718480E+00   2.718459E+00   2.718437E+00   2.718415E+00   2.718392E+00   2.718369E+00   2.718345E+00   2.718322E+00   2.718298E+00   2.718275E+00   2.718252E+00   2.718229E+00   2.718207E+00   2.718185E+00   2.718164E+00   2.718144E+00   2.718125E+00   2.718107E+00   2.718090E+00   2.718073E+00   2.718058E+00   2.718045E+00   2.718032E+00   2.718021E+00   2.718011E+00   2.718003E+00   2.717995E+00   2.717990E+00   2.717985E+00   2.717983E+00   2.717981E+00   2.717981E+00   2.717983E+00   2.717985E+00   2.717990E+00   2.717995E+00   2.718003E+00   2.718011E+00   2.718021E+00   2.718032E+00   2.718045E+00   2.718058E+00   2.718073E+00   2.718090E+00   2.718107E+00   2.718125E+00   2.718144E+00   2.718164E+00   2.718185E+00   2.718207E+00   2.718229E+00   2.718252E+00   2.718275E+00   2.718298E+00   2.718322E+00   2.718345E+00   2.718369E+00   2.718392E+00   2.718415E+00   2.718437E+00   2.718459E+00   2.718480E+00   2.718500E+00   2.718519E+00   2.718537E+00   2.718553E+00   2.718568E+00   2.718582E+00   2.718593E+00   2.718603E+00   2.718611E+00   2.718617E+00   2.718621E+00   2.718623E+00   2.718623E+00   2.718621E+00   2.718617E+00   2.718611E+00   2.718602E+00   2.718593E+00   2.718582E+00
   2.718563E+00   2.718573E+00   2.718582E+00   2.718589E+00   2.718594E+00   2.718598E+00   2.718600E+00   2.718599E+00   2.718597E+00   2.718593E+00   2.718587E+00   2.718579E+00   2.718570E+00   2.718558E+00   2.718546E+00   2.718531E+00   2.718516E+00   2.718499E+00   2.718481E+00   2.718462E+00   2.718442E+00   2.718422E+00   2.718401E+00   2.718380E+00   2.718358E+00   2.718336E+00   2.718315E+00   2.718293E+00   2.718271E+00   2.718250E+00   2.718229E+00   2.718209E+00   2.718189E+00   2.718170E+00   2.718152E+00   2.718135E+00   2.718118E+00   2.718103E+00   2.718088E+00   2.718075E+00   2.718062E+00   2.718051E+00   2.718041E+00   2.718032E+00   2.718025E+00   2.718018E+00   2.718013E+00   2.718009E+00   2.718007E+00   2.718005E+00   2.718005E+00   2.718007E+00   2.718009E+00   2.718013E+00   2.718018E+00   2.718025E+00   2.718032E+00   2.718041E+00   2.718051E+00   2.718062E+00   2.718075E+00   2.718088E+00   2.718103E+00   2.718118E+00   2.718135E+00   2.718152E+00   2.718170E+00   2.718189E+00   2.718209E+00   2.718229E+00   2.718250E+00   2.718271E+00   2.718293E+00   2.718315E+00   2.718336E+00   2.718358E+00   2.718380E+00   2.718401E+00   2.718422E+00   2.718442E+00   2.718462E+00   2.718481E+00   2.718499E+00   2.718516E+00   2.718531E+00   2.718546E+00   2.718558E+00   2.718570E+00   2.718579E+00   2.718587E+00   2.718593E+00   2.718597E+00   2.718599E+00   2.718600E+00   2.718598E+00   2.718594E+00   2.718589E+00   2.718582E+00   2.718573E+00   2.718563E+00
   2.718542E+00   2.718551E+00   2.718559E+00   2.718565E+00   2.718570E+00   2.718573E+00   2.718574E+00   2.718573E+00   2.718570E+00   2.718566E+00   2.718560E+00   2.718553E+00   2.718544E+00   2.718533E+00   2.718520E+00   2.718507E+00   2.718492E+00   2.718477E+00   2.718460E+00   2.718442E+00   2.718424E+00   2.718405E+00   2.718386E+00   2.718366E+00   2.718347E+00   2.718327E+00   2.718307E+00   2.718287E+00   2.718268E+00   2.718249E+00   2.718230E+00   2.718212E+00   2.718194E+00   2.718177E+00   2.718161E+00   2.718146E+00   2.718131E+00   2.718118E+00   2.718105E+00   2.718093E+00   2.718082E+00   2.718073E+00   2.718064E+00   2.718056E+00   2.718050E+00   2.718044E+00   2.718040E+00   2.718036E+00   2.718034E+00   2.718033E+00   2.718033E+00   2.718034E+00   2.718036E+00   2.718040E+00   2.718044E+00   2.718050E+00   2.718056E+00   2.718064E+00   2.718073E+00   2.718082E+00   2.718093E+00   2.718105E+00   2.718118E+00   2.718131E+00   2.718146E+00   2.718161E+00   2.718177E+00   2.718194E+00   2.718212E+00   2.718230E+00   2.718249E+00   2.718268E+00   2.718287E+00   2.718307E+00   2.718327E+00   2.718347E+00   2.718366E+00   2.718386E+00   2.718405E+00   2.718424E+00   2.718442E+00   2.718460E+00   2.718477E+00   2.718492E+00   2.718507E+00   2.718520E+00   2.718533E+00   2.718544E+00   2.718553E+00   2.718560E+00   2.718566E+00   2.718570E+00   2.718573E+00   2.718574E+00   2.718573E+00   2.718570E+00   2.718565E+00   2.718559E+00   2.718551E+00   2.718542E+00
   2.718519E+00   2.718527E+00   2.718534E+00   2.718539E+00   2.718543E+00   2.718545E+00   2.718545E+00   2.718544E+00   2.718542E+00   2.718537E+00   2.718531E+00   2.718524E+00   2.718515E+00   2.718505E+00   2.718493E+00   2.718480E+00   2.718467E+00   2.718452E+00   2.718437E+00   2.718421E+00   2.718404E+00   2.718387E+00   2.718369E+00   2.718352E+00   2.718334E+00   2.718316E+00   2.718299E+00   2.718281E+00   2.718264E+00   2.718247E+00   2.718231E+00   2.718215E+00   2.718200E+00   2.718185E+00   2.718171E+00   2.718158E+00   2.718146E+00   2.718134E+00   2.718123E+00   2.718113E+00   2.718104E+00   2.718096E+00   2.718089E+00   2.718082E+00   2.718077E+00   2.718072E+00   2.718069E+00   2.718066E+00   2.718064E+00   2.718063E+00   2.718063E+00   2.718064E+00   2.718066E+00   2.718069E+00   2.718072E+00   2.718077E+00   2.718082E+00   2.718089E+00   2.718096E+00   2.718104E+00   2.718113E+00   2.718123E+00   2.718134E+00   2.718146E+00   2.718158E+00   2.718171E+00   2.718185E+00   2.718200E+00   2.718215E+00   2.718231E+00   2.718247E+00   2.718264E+00   2.718281E+00   2.718299E+00   2.718316E+00   2.718334E+00   2.718352E+00   2.718369E+00   2.718387E+00   2.718404E+00   2.718421E+00   2.718437E+00   2.718452E+00   2.718467E+00   2.718480E+00   2.718493E+00   2.718505E+00   2.718515E+00   2.718524E+00   2.718531E+00   2.718537E+00   2.718542E+00   2.718544E+00   2.718545E+00   2.718545E+00   2.718543E+00   2.718539E+00   2.718534E+00   2.718527E+00   2.718519E+00
   2.718495E+00   2.718501E+00   2.718507E+00   2.718511E+00   2.718514E+00   2.718515E+00   2.718515E+00   2.718513E+00   2.718510E+00   2.718506E+00   2.718500E+00   2.718493E+00   2.718484E+00   2.718474E+00   2.718464E+00   2.718452E+00   2.718439E+00   2.718426E+00   2.718412E+00   2.718398E+00   2.718383E+00   2.718367E+00   2.718352E+00   2.718336E+00   2.718321E+00   2.718305E+00   2.718290E+00   2.718275E+00   2.718261E+00   2.718246E+00   2.718232E+00   2.718219E+00   2.718206E+00   2.718194E+00   2.718183E+00   2.718172E+00   2.718162E+00   2.718152E+00   2.718143E+00   2.718135E+00   2.718128E+00   2.718122E+00   2.718116E+00   2.718111E+00   2.718107E+00   2.718103E+00   2.718100E+00   2.718098E+00   2.718096E+00   2.718096E+00   2.718096E+00   2.718096E+00   2.718098E+00   2.718100E+00   2.718103E+00   2.718107E+00   2.718111E+00   2.718116E+00   2.718122E+00   2.718128E+00   2.718135E+00   2.718143E+00   2.718152E+00   2.718162E+00   2.718172E+00   2.718183E+00   2.718194E+00   2.718206E+00   2.718219E+00   2.718232E+00   2.718246E+00   2.718261E+00   2.718275E+00   2.718290E+00   2.718305E+00   2.718321E+00   2.718336E+00   2.718352E+00   2.718367E+00   2.718383E+00   2.718398E+00   2.718412E+00   2.718426E+00   2.718439E+00   2.718452E+00   2.718464E+00   2.718474E+00   2.718484E+00   2.718493E+00   2.718500E+00   2.718506E+00   2.718510E+00   2.718513E+00   2.718515E+00   2.718515E+00   2.718514E+00   2.718511E+00   2.718507E+00   2.718501E+00   2.718495E+00
   2.718469E+00   2.718474E+00   2.718478E+00   2.718482E+00   2.718483E+00   2.718484E+00   2.718483E+00   2.718481E+00   2.718477E+00   2.718473E+00   2.718467E+00   2.718460E+00   2.718452E+00   2.718443E+00   2.718433E+00   2.718422E+00   2.718410E+00   2.718399E+00   2.718386E+00   2.718373E+00   2.718360E+00   2.718347E+00   2.718333E+00   2.718320E+00   2.718307E+00   2.718294E+00   2.718281E+00   2.718269E+00   2.718257E+00   2.718245E+00   2.718234E+00   2.718223E+00   2.718213E+00   2.718204E+00   2.718195E+00   2.718186E+00   2.718179E+00   2.718171E+00   2.718165E+00   2.718159E+00   2.718154E+00   2.718149E+00   2.718145E+00   2.718141E+00   2.718138E+00   2.718135E+00   2.718133E+00   2.718132E+00   2.718131E+00   2.718130E+00   2.718130E+00   2.718131E+00   2.718132E+00   2.718133E+00   2.718135E+00   2.718138E+00   2.718141E+00   2.718145E+00   2.718149E+00   2.718154E+00   2.718159E+00   2.718165E+00   2.718171E+00   2.718179E+00   2.718186E+00   2.718195E+00   2.718204E+00   2.718213E+00   2.718223E+00   2.718234E+00   2.718245E+00   2.718257E+00   2.718269E+00   2.718281E+00   2.718294E+00   2.718307E+00   2.718320E+00   2.718333E+00   2.718347E+00   2.718360E+00   2.718373E+00   2.718386E+00   2.718399E+00   2.718410E+00   2.718422E+00   2.718433E+00   2.718443E+00   2.718452E+00   2.718460E+00   2.718467E+00   2.718473E+00   2.718477E+00   2.718481E+00   2.718483E+00   2.718484E+00   2.718483E+00   2.718482E+00   2.718478E+00   2.718474E+00   2.718469E+00
   2.718442E+00   2.718446E+00   2.718449E+00   2.718451E+00   2.718451E+00   2.718451E+00   2.718449E+00   2.718447E+00   2.718443E+00   2.718438E+00   2.718432E+00   2.718425E+00   2.718418E+00   2.718409E+00   2.718400E+00   2.718390E+00   2.718380E+00   2.718370E+00   2.718359E+00   2.718348E+00   2.718337E+00   2.718325E+00   2.718314E+00   2.718303E+00   2.718293E+00   2.718282E+00   2.718272E+00   2.718262E+00   2.718253E+00   2.718244E+00   2.718236E+00   2.718228E+00   2.718220E+00   2.718214E+00   2.718207E+00   2.718202E+00   2.718197E+00   2.718192E+00   2.718188E+00   2.718184E+00   2.718180E+00   2.718178E+00   2.718175E+00   2.718173E+00   2.718171E+00   2.718170E+00   2.718168E+00   2.718168E+00   2.718167E+00   2.718167E+00   2.718167E+00   2.718167E+00   2.718168E+00   2.718168E+00   2.718170E+00   2.718171E+00   2.718173E+00   2.718175E+00   2.718178E+00   2.718180E+00   2.718184E+00   2.718188E+00   2.718192E+00   2.718197E+00   2.718202E+00   2.718207E+00   2.718214E+00   2.718220E+00   2.718228E+00   2.718236E+00   2.718244E+00   2.718253E+00   2.718262E+00   2.718272E+00   2.718282E+00   2.718293E+00   2.718303E+00   2.718314E+00   2.718325E+00   2.718337E+00   2.718348E+00   2.718359E+00   2.718370E+00   2.718380E+00   2.718390E+00   2.718400E+00   2.718409E+00   2.718418E+00   2.718425E+00   2.718432E+00   2.718438E+00   2.718443E+00   2.718447E+00   2.718449E+00   2.718451E+00   2.718451E+00   2.718451E+00   2.718449E+00   2.718446E+00   2.718442E+00
   2.718415E+00   2.718417E+00   2.718418E+00   2.718419E+00   2.718418E+00   2.718417E+00   2.718415E+00   2.718411E+00   2.718407E+00   2.718402E+00   2.718396E+00   2.718390E+00   2.718382E+00   2.718375E+00   2.718366E+00   2.718358E+00   2.718349E+00   2.718340E+00   2.718331E+00   2.718322E+00   2.718312E+00   2.718303E+00   2.718295E+00   2.718286E+00   2.718278E+00   2.718270E+00   2.718263E+00   2.718256E+00   2.718249E+00   2.718243E+00   2.718238E+00   2.718233E+00   2.718228E+00   2.718224E+00   2.718221E+00   2.718218E+00   2.718215E+00   2.718213E+00   2.718211E+00   2.718210E+00   2.718209E+00   2.718207E+00   2.718207E+00   2.718206E+00   2.718206E+00   2.718205E+00   2.718205E+00   2.718205E+00   2.718205E+00   2.718205E+00   2.718205E+00   2.718205E+00   2.718205E+00   2.718205E+00   2.718205E+00   2.718206E+00   2.718206E+00   2.718207E+00   2.718207E+00   2.718209E+00   2.718210E+00   2.718211E+00   2.718213E+00   2.718215E+00   2.718218E+00   2.718221E+00   2.718224E+00   2.718228E+00   2.718233E+00   2.718238E+00   2.718243E+00   2.718249E+00   2.718256E+00   2.718263E+00   2.718270E+00   2.718278E+00   2.718286E+00   2.718295E+00   2.718303E+00   2.718312E+00   2.718322E+00   2.718331E+00   2.718340E+00   2.718349E+00   2.718358E+00   2.718366E+00   2.718375E+00   2.718382E+00   2.718390E+00   2.718396E+00   2.718402E+00   2.718407E+00   2.718411E+00   2.718415E+00   2.718417E+00   2.718418E+00   2.718419E+00   2.718418E+00   2.718417E+00   2.718415E+00